70
CSD_code = BAJGOK | q = 0 | S = 0 | Stoichiometry = C26H40MoOP2 | MND = 9
C         6.99709132154810    8.84695061809388    3.78196892849631
C         6.92447099965117    7.64170259353536    3.92873298065792
C         6.83517810583777    6.24766601841345    4.15003715387623
C         6.66240727788485    5.73805649796575    5.43915953292133
H         6.59343527042169    6.42178919857452    6.27481354680341
C         6.58132931221598    4.37636148380286    5.65003236994585
H         6.44797163900259    4.00133438870497    6.65596220284147
C         6.66894106914726    3.48075458531799    4.59185678839201
C         6.58885583727549    2.00030287626509    4.81438555957978
H         6.38030661675316    1.77405053114224    5.85742446245936
H         7.52990742964267    1.52329866309370    4.53916631376960
H         5.80317557027115    1.56261821100262    4.19913144095337
C         6.84074115293558    3.98860372449279    3.30774644109221
H         6.91053720358435    3.30416017920168    2.47292252913596
C         6.92304652024096    5.34645821288863    3.08474016733967
H         7.05781814204775    5.72456702374044    2.08003115475916
C         6.87698077470793   12.16814033680540    4.35008610418428
C         7.90381458202960   12.24620388381702    1.38276884486259
C         6.82003642216198   11.44932592439301    0.92786248582570
C         7.25588306559964   10.08469936949098    0.92124216007943
C         8.59652689412378   10.04961608110792    1.38310869391802
C         8.99931687371413   11.39223331586691    1.67789716222909
C         7.93689346548889   13.74400421120572    1.40009161524440
H         8.61543090984727   14.11388696377581    2.16720552661839
H         6.94945541227704   14.15732291546651    1.59976959333235
H         8.27636679006260   14.12235044724931    0.43233521193537
C         5.60740975956989   11.97863925514264    0.22103576771364
H         5.31652933243794   12.95325823073789    0.61024154945026
H         4.75823760641198   11.30226891004513    0.31191141393633
H         5.83080214013071   12.09643003985795   -0.84314503224330
C         6.57908591669549    8.92343841798457    0.25740750610408
H         7.13690479692257    8.63741922996102   -0.63829140447179
H         5.56392996705903    9.17123907563933   -0.04462566038501
H         6.54303346455157    8.05995792887793    0.92164876543151
C         9.48355221894652    8.84733775389492    1.26013426676946
H         9.60299902197852    8.58670258435878    0.20503046050939
H         9.05215364763618    7.98748826115548    1.77280800807350
H        10.47230761752212    9.03605351227647    1.67229379832466
C        10.41337267462192   11.85242787435765    1.87475808162427
H        10.99444816730855   11.13783634057938    2.45657690488493
H        10.44920160343848   12.81812253726603    2.37686577825302
H        10.89692150108817   11.96399094258072    0.90007872174224
C         9.94438973647404    9.04995557463012    4.80012005815189
H        10.47316530656615    8.93489027754382    5.74672277621707
H        10.65578222448478    9.31352049204362    4.01984598173170
H         9.44962740552321    8.11807948543910    4.53564103045483
C         9.74702841381096   11.75159787002444    5.48427269661393
H         9.10994832145319   12.57903313443987    5.79257454240159
H        10.37354773791953   12.08030085413799    4.65802330284226
H        10.37875334059777   11.44678975632714    6.31960961818627
C         7.93999062104002    9.93113747456369    6.54247158223191
H         8.72349941065558    9.79972006839386    7.29040580612297
H         7.37290255228216    9.00911629716821    6.42969594021685
H         7.27334890392718   10.73798719047036    6.84727227060052
C         4.58853514621119    9.98645491541853    5.37882441944992
H         3.50456651602889    9.91664836193950    5.48257437636030
H         4.97272249300570   10.75296944126504    6.05189175284599
H         5.04711193669204    9.02732306852142    5.61288996081300
C         3.90117168935158   11.88338809966776    3.47326275542175
H         3.94023640930375   12.24031563242868    2.44646818122508
H         4.24179500242121   12.67889712259975    4.13420716480797
H         2.87464648614056   11.61424323848093    3.72532425932291
C         4.05728846712408    9.18649696511865    2.75352132707848
H         3.05210497197902    9.10465659625675    3.16801987647928
H         4.57040864532764    8.23078279812024    2.83437033712701
H         3.99299980578701    9.47332637376589    1.70576596437226
Mo        7.27750107899141   10.78509435205375    3.08826523055593
O         6.63440906268066   13.01007102985732    5.11399164151395
P         8.68203416680283   10.36652991594303    4.93205063284721
P         5.02077605093816   10.44540446340997    3.66500861849060

