86
CSD_code = BAJHEA | q = 0 | S = 0 | Stoichiometry = C29H53B3Zr | MND = 14
Zr        2.70659069148036    8.23151913129034    6.89828021916561
C         3.61297790645454    7.07832276666749    8.99660905987170
H         3.30008732380000    7.29413690765837   10.01077870516140
C         3.08699611920641    6.06211898778538    8.17212976677431
H         2.29575954855056    5.37371916228546    8.44553739398812
C         3.89784952061149    5.97466192933338    7.01698013220157
H         3.82631210912045    5.21542138920423    6.24653621025198
C         4.93261896136780    6.92293127478026    7.14128277139266
H         5.77757023259671    7.03272940553856    6.47302205763634
C         4.75194623467954    7.61361632504346    8.35565848927301
H         5.44241184454587    8.33206099752528    8.78361071216450
B         4.00348452439375    9.24049749105200    5.01243815163377
H         3.96278048230404    8.03203304599950    4.77850661172928
H         4.04742481094354    9.44571249635912    6.29452713098312
C         2.73210744035579   10.03900473685022    4.36713133740276
H         1.74589103235737    9.66657864127608    4.72605408836533
C         2.72967172001673    9.81274654702603    2.84318508390677
H         2.55450273077901    8.74447304917037    2.67717349638744
H         1.90111393695588   10.35723977863763    2.37818052140409
C         4.02586606085353   10.20189148478942    2.12740486976454
H         4.05233700625099   11.27910863175939    1.97783998443067
H         4.01070744096164    9.75653309985330    1.12768983951879
C         5.30311191859974    9.74513951624216    2.83713539966712
H         6.15510072546029   10.25935714603586    2.38174182306070
H         5.43443186325325    8.67473435249843    2.65674644077492
C         5.31428571298552    9.95124512030920    4.36014017475718
H         6.25027074067582    9.49968455520597    4.71988022743328
C         5.36453216200666   11.42710883561690    4.78447289955830
H         5.51601812514754   11.44908428984676    5.86923531247904
H         6.22577188060679   11.92256582932639    4.32563023566846
C         4.10884147757645   12.23708815697712    4.45280063789090
H         4.12686291127121   12.52417572709963    3.40365289907600
H         4.13943215580205   13.17026428608564    5.02420558444732
C         2.79112719742045   11.52297928201129    4.77259411550034
H         1.97627041663196   12.07859089801243    4.29596442545277
H         2.62892750867618   11.56898630632394    5.85719326798061
B         0.77310912253417    6.97514490238040    6.01278422788610
H         0.86648795066391    7.25634759709948    7.23740681056495
H         1.87149153911580    7.30306907953748    5.43263694168507
C        -0.48115166260899    7.73939161707188    5.31385858864943
H        -0.42701678745533    8.83724067307329    5.43863041070930
C        -0.45735344436840    7.47296999553166    3.79887242100822
H        -1.32600680808730    7.93588174003872    3.32019926090755
H         0.43441546309488    7.96136562102915    3.39449386192513
C        -0.42156528203479    5.99292959193460    3.40398091581306
H        -1.42637831727122    5.57844504990196    3.45019198529553
H        -0.11382990849212    5.92619775114079    2.35573583664682
C         0.52888703605342    5.12735083708150    4.23748108994100
H         1.55371469099313    5.31160086580938    3.89629555222481
H         0.30295034399939    4.07571130371850    4.03524297621053
C         0.50271155885302    5.39356046021710    5.75301675266825
H         1.28607191887952    4.75110804283802    6.18430729515955
C        -0.81011022080611    4.97172762397340    6.43286903741627
H        -1.01697456327807    3.91583295849132    6.23249694107938
H        -0.66397608634668    5.07623450193472    7.51272417680257
C        -2.03737345794972    5.79135293775385    6.02878314965995
H        -2.83566866951528    5.59432443745298    6.75124415686622
H        -2.40758999323117    5.44530317277709    5.06643691910613
C        -1.79794218193352    7.30257961500938    5.98091077055581
H        -1.78495643275224    7.67646091794827    7.00859227830607
H        -2.64788310192777    7.77218946267398    5.47596186646179
B         1.81829334845215   10.04227669930322    8.29604981945509
H         3.03764890417186    9.77899440787570    8.41038309734521
H         1.42774483404594    9.70947539623666    7.11185855989174
C         1.52521493206891   11.62144757969336    8.55408901312237
H         2.08253274635152   12.26984673567779    7.86307892358527
C         2.00460823474642   12.01138952482965    9.96222487298119
H         3.09406483535331   11.91138945778657    9.97134281739434
H         1.77282602157723   13.06249580482101   10.15834519577124
C         1.43043468271489   11.16882344469820   11.10357115888514
H         0.42513463241717   11.50829816212624   11.34195611963794
H         2.03294987657561   11.34683719031760   11.99989303015220
C         1.41471266628966    9.66337603115630   10.82751100088888
H         0.80138018912301    9.17734901747601   11.59345947189456
H         2.43747079058167    9.28747725231545   10.94052879320319
C         0.92695140221634    9.26492410990465    9.42225685220719
H         1.02014412270610    8.15787880191867    9.36950750342056
C        -0.56325571279268    9.56667270580520    9.18197343001906
H        -0.82885582141710    9.10578183021679    8.22447027783090
H        -1.17612748693988    9.09283206152733    9.95594244676511
C        -0.93337203779019   11.05159963317609    9.11614675171481
H        -1.92693878770227   11.13451249382192    8.66492940412722
H        -1.02452934122548   11.45323000323306   10.12320595051691
C         0.03735806858019   11.91321212486866    8.30439714507990
H        -0.17992779231061   12.96574428108483    8.50971360992493
H        -0.15171848859582   11.74325291228192    7.23976045349562

