103
CSD_code = BAJHUR | q = 0 | S = 0 | Stoichiometry = C48H49ClN4Pd | MND = 4
Pd        3.51763235946553    5.12562964115231   20.73106299760826
Cl        1.26526554308198    5.58915552504500   20.82083940752232
N         3.51659163342404    3.13627659195712   21.21576318654290
N         4.56531920820033    1.21906885912079   20.78357897030327
N         4.26335903510566    6.95321593735383   20.22971576041518
N         6.00668199223311    8.33776942831232   20.38924749930799
C         5.39983488697552    4.74424120846947   20.66445495543806
C         5.83376245531218    3.42766529970691   20.87838529084727
C         7.20067038293848    3.16588793240634   20.89632504166813
H         7.59846914830147    2.19099444085099   21.13436791915853
C         8.08682713860289    4.19742904671784   20.61543558345639
H         9.14627859763036    3.98525532166596   20.60155904040186
C         7.66079896355536    5.49217590418759   20.35399659400448
H         8.40455997218699    6.23557613341011   20.10928549460128
C         6.30163770649003    5.79015934768433   20.41571154621910
C         5.56456609969515    7.05235051531667   20.32177619256589
C         4.66834120161968    2.55056603420659   21.00067042464735
C         3.16435644432651    0.81795258840258   20.88009924816417
H         2.85269179409194    0.31469495854785   19.95765462206881
C         2.44183633838448    2.19310041786626   21.01334585870199
H         1.76259803583697    2.20401893769110   21.87405976459858
C         3.64732568046774    8.23925519887799   20.43641445618794
H         2.96896475066642    8.46994436926387   19.60602942973149
C         4.85264437270163    9.23041067198470   20.46588791522034
H         4.86020594056181    9.78649550286364   21.41182583740952
C         5.64466475154120    0.30201542912592   20.49931516310260
H         6.41592345952429    0.87949739263541   19.97561253703633
C         6.24797008942850   -0.28878827204256   21.78174316612977
H         5.49340109707124   -0.89388991600029   22.28778797115934
H         6.53662836435613    0.51796416474488   22.45910098541576
C         7.45481405544254   -1.15694288896581   21.44023918321361
H         8.22693060510479   -0.54370827514586   20.96839797737549
H         7.87594869203181   -1.57785664740481   22.35504190885269
C         7.04846014620667   -2.27818230105909   20.48920155804872
H         6.32668480574417   -2.92920289045591   20.98749958802174
H         7.92057497871298   -2.88079514847756   20.22893511034878
C         6.41955210875307   -1.70103122358580   19.22471639908500
H         7.15909715294899   -1.09878241717056   18.69172760588950
H         6.10873788746659   -2.51055664510033   18.56186124485728
C         5.21112426820186   -0.83512868625090   19.57325874829901
H         4.77226461446296   -0.42493026563116   18.66112251948400
H         4.46409995836305   -1.45295657260718   20.07421744184514
C         2.90099859712405   -0.07356595700639   22.06396556873299
C         3.28513878702026    0.33211429837219   23.33772466541433
H         3.77650171238763    1.28593380263115   23.46596319063262
C         3.04176171580253   -0.47685374406831   24.43188739992183
H         3.34568224625253   -0.15427703082281   25.41668477358132
C         2.40630198942068   -1.69685961549339   24.26671391244846
H         2.21617463776202   -2.32842827974887   25.12164550766974
C         2.01049442433405   -2.10130904128377   23.00362508387921
H         1.50871581370282   -3.04841937535678   22.87045536971660
C         2.25682027890756   -1.29297449285956   21.90718774329751
H         1.94110153092588   -1.60843634216171   20.92221672516181
C         1.65697546995021    2.54899022120351   19.76726576330227
C         0.31079585601941    2.22167217896394   19.69070391155959
H        -0.16340792397906    1.72651079693256   20.52617543338054
C        -0.42792373594928    2.54704614695275   18.56774161386640
H        -1.47837102431088    2.29923361047485   18.52641182526905
C         0.17215781794945    3.20718160998124   17.51004386257831
H        -0.40881122932237    3.47992104956605   16.64127531199276
C         1.51739241935887    3.52640019385103   17.57279988640874
H         1.98961495521545    4.04391215449014   16.74999260471369
C         2.26428406107944    3.19626482797358   18.69204233874105
H         3.33232129894089    3.43803610193114   18.70502038690825
C         7.29489293011764    8.74355721580293   20.91239769449884
H         8.04887101584004    8.11378014748030   20.43253902294092
C         7.37392191846920    8.53106076177905   22.43045084083969
H         6.63197288938872    9.16199411191352   22.92534974400366
H         7.13928444756249    7.48925432543641   22.66202845681707
C         8.76820632816173    8.88182434148420   22.93915645277901
H         9.49687877192042    8.20066574441226   22.49297957887814
H         8.80901447046253    8.74984622343563   24.02191757527046
C         9.12751881901936   10.31919557216107   22.57453697200213
H        10.13832703587380   10.54719438973699   22.91775588180051
H         8.44110735934077   11.00325200557852   23.07840878593926
C         9.03214335517885   10.52873502271224   21.06598975274973
H         9.76203749036900    9.88987443009370   20.56320841083657
H         9.26945545676912   11.56468379088281   20.81788095908971
C         7.62876735191945   10.19377153134695   20.56553287895732
H         6.91325259647487   10.86974780686184   21.03518004488956
H         7.56766149530039   10.33877839349066   19.48538424959015
C         4.78933987697969   10.18791951455122   19.30739748704809
C         5.09655253743309    9.75342559975099   18.02357767724720
H         5.41031508914718    8.73093739389965   17.87102406465841
C         5.00138225998287   10.62095800458440   16.95123422144513
H         5.24477165333964   10.27530106663863   15.95728837508899
C         4.58961609867778   11.92840616969424   17.14912186592784
H         4.51377805010196   12.60494424932025   16.31094526922154
C         4.27098789995029   12.36390536375285   18.42391997512836
H         3.94392272542137   13.38086104235857   18.58258827617281
C         4.37102953744258   11.49765235193188   19.49816546510527
H         4.11792020788325   11.83780504451488   20.49274942313678
C         2.86325584277969    8.25929198339941   21.73150893885679
C         1.79521621423406    9.13526886177432   21.86592089807353
H         1.52226683409390    9.76988554670442   21.03460859889388
C         1.07005604726398    9.18200200597205   23.04245678766552
H         0.23249420041340    9.85840582889986   23.13021743238710
C         1.40467558086935    8.35018670174513   24.09659699971661
H         0.82827219869065    8.37371686950142   25.00977104251841
C         2.47386287437124    7.48010213501870   23.97366618497622
H         2.73543470918055    6.82594486169060   24.79300256628783
C         3.20848704199688    7.43433106017898   22.80014976649737
H         4.05973237180587    6.74772476531081   22.73467635790453

