78
CSD_code = BAJKUU | q = 0 | S = 0 | Stoichiometry = C24H50OOsP2 | MND = 6
Os        3.86744838151854    4.41274762293440    3.82828724643021
H         2.40705152279078    4.25391026462126    4.37692210634967
H         3.07257058361007    3.43291126454331    2.84305786801641
H         4.84006936831964    4.05953175353122    2.64742140570251
P         4.67691348833633    2.58983123061327    5.18395160916537
P         3.28662827031201    6.46038271644740    2.70603528820016
O         4.80191141703874    5.48526718801479    5.18556657148638
C         5.13116390934785    6.57628286879550    5.81677379613434
C         6.43562784495239    7.09559334230647    5.72958773075650
H         7.15962655716310    6.58815892380719    5.10584167362650
C         6.78955502405353    8.23128003666261    6.42518764454177
H         7.79758171192826    8.61262933112937    6.33360533745275
C         5.87453916490002    8.88163090984491    7.23710330577970
H         6.15907100025973    9.77164747557545    7.77809648987091
C         4.59276506528549    8.36881335431475    7.35341697563255
H         3.87065989205557    8.85817157394503    7.99309334819072
C         4.21918718577836    7.23795370944874    6.66002329705666
H         3.22009847920225    6.83489136494208    6.76267932540609
C         6.40108774773484    2.90893551342517    5.85918993680161
H         6.24716751431930    3.82083492304295    6.45288686256205
C         7.38402325905710    3.25714281326783    4.74311273893710
H         8.26955649407706    3.73432811567444    5.16335061466208
H         6.93153975686208    3.94135091046865    4.02733202147491
H         7.70316478784621    2.36877088483457    4.20390120499285
C         7.00578319670354    1.84520787458641    6.77013999334546
H         7.33396643673723    0.98262479233769    6.19592536923378
H         6.31401472126208    1.51342427438587    7.53973648534605
H         7.88176128178789    2.26191559705459    7.26768737238486
C         3.70682452422152    2.28807743332573    6.75836586232523
H         4.22422697374351    1.51167519055551    7.33359761899764
C         2.29482590069019    1.81032484714020    6.42651830199902
H         1.69070613944055    1.78062348985481    7.33267949036692
H         2.29502140062758    0.81632497421240    5.98754085324959
H         1.82524351466340    2.49384563155552    5.71998414398864
C         3.63870711073409    3.55779049028042    7.60144020352798
H         3.17664491136547    4.36062777221093    7.03031026500847
H         4.62475515946243    3.88669441766297    7.92438511434004
H         3.03453839981899    3.38481161715042    8.49191949148028
C         4.60510246281461    0.89743254154171    4.37693506234369
H         3.56036058154838    0.87914384206834    4.03477579193820
C         4.85674280528831   -0.33081602029224    5.24818583416170
H         4.59319477736790   -1.22157702753999    4.67838327178839
H         4.26024845777775   -0.33028820862862    6.15546637175171
H         5.90353828960144   -0.41577767871445    5.52358925059206
C         5.48533203227400    0.84212285696019    3.13117419631112
H         6.53196726807192    0.71291384988773    3.39588266624741
H         5.37232593076587    1.75581806085673    2.55057821110591
H         5.19191186662783   -0.00043262648418    2.50706547019453
C         2.34066868522905    7.69213899743362    3.77265282074100
H         3.09148930060066    7.95371412319826    4.53441061915104
C         1.14900934009990    7.07804344704198    4.50515596002436
H         0.90284016885894    7.68447583090268    5.37654690704259
H         1.37378271270693    6.06763225883637    4.83968370602299
H         0.26981841944960    7.03377342252681    3.86873594766296
C         1.90336034259297    8.98246415640129    3.08316556156623
H         1.27345171597884    8.77897090563893    2.22013113549562
H         2.75222130706835    9.58539307535582    2.77440682371308
H         1.32109959850640    9.57569452126455    3.78803238430116
C         4.74066595474675    7.57332231972981    2.22906358911406
H         4.85437687492333    8.23678863519038    3.09936305169754
C         6.03530995545783    6.77569610021617    2.09057659548587
H         5.98382634322067    6.08346898421209    1.25241160107602
H         6.23388569666796    6.20228754791676    2.99206888999169
H         6.87440378050839    7.45270673860696    1.92993183474826
C         4.56422609537821    8.43665241188070    0.97948173874367
H         4.59541020953106    7.83058478245596    0.07800861290686
H         5.38833989636499    9.14833330535835    0.92879965658205
H         3.63779638348978    9.00163095427050    0.98050072319305
C         2.31317447768683    6.28874216189704    1.11994625190308
H         2.20604617931773    7.28069573265811    0.66954006006460
C         0.93472017023013    5.69785786530010    1.39752662336460
H         0.47608195508826    5.37588504862764    0.46391800149884
H         0.27307557420146    6.42262779560674    1.86254494699394
H         1.03385154945587    4.83181087620742    2.05206160327041
C         3.06876876281273    5.37300306265879    0.16132584469873
H         3.15320580937196    4.38093003084614    0.60215256428330
H         4.07087693479574    5.73870317150340   -0.04443847352973
H         2.53186323552098    5.29706565209735   -0.78319667302783

