75
CSD_code = BAJQUY | q = 0 | S = 0 | Stoichiometry = C24H44N2NiSi4 | MND = 4
Ni        1.31577917796825    2.56039902050025    7.57096619460928
Si        2.04610148975612    4.10185063800167    9.91761468502802
Si       -0.12705149687382    5.82336416994752    8.12054890719234
N         2.82326930716962    3.44944305458288    6.89411729224895
C         1.25055806545475    4.51812503139903    8.22286918938729
C         2.28532753937094    4.65353928059475    7.20956609819801
C         2.71983596410583    5.81569559295503    6.55242883807172
C         3.73978190691331    5.72675057148214    5.63554520979871
C         4.29600515334515    4.47988279450195    5.34915282897827
C         3.78490007696356    3.36635859464036    5.98374496064648
C         0.75880411962063    3.92812756116027   11.31858438312907
C         3.23196121308398    5.52523678440483   10.40679920416039
C         3.12243942795035    2.50789358892842    9.88406068662968
C        -1.81986912818179    5.29039961520004    8.82943638051106
C         0.34320394547988    7.41717629162764    9.07703310660266
C        -0.47240819965560    6.29958413562028    6.29030699926326
H         2.26693168593050    6.76242754761554    6.79446907997262
H         4.11440329031062    6.61316382651245    5.14352106497103
H         5.10878902977803    4.38270918976157    4.64720533041680
H         4.16957988065177    2.38054060984232    5.77202907096952
H         0.10427404529680    4.79009626591638   11.36369567014288
H         0.14466312183185    3.04249332476568   11.20328172744263
H         1.26864784967739    3.85437504671661   12.27300147098955
H         2.68901150216296    6.43329094628947   10.64039802902192
H         3.81765044106217    5.25983191502537   11.28104643938120
H         3.92472790649437    5.75423505972369    9.60274444789144
H         4.14268779740238    2.73396514977845    9.58909472982513
H         3.15629375211226    2.02903491346018   10.85794135163666
H         2.73167661190941    1.77523000985616    9.16574967243164
H        -2.27135079728106    4.49751191643302    8.24216083826410
H        -1.74906730017824    4.95900659269259    9.85930187505746
H        -2.50175655369956    6.13562294136324    8.80917344197831
H         1.32702403763693    7.78805590947386    8.80814800768344
H        -0.37270448215124    8.20902432552422    8.87664558990773
H         0.34356240371147    7.24248591330372   10.14806099997563
H         0.20691643291218    5.80830990691570    5.60082905674196
H        -1.48226959846588    6.02827498287752    5.99941678109198
H        -0.36975646799888    7.36976510547991    6.13641310210622
N        -0.19148887537440    1.67125675224233    8.24824189853896
C         0.34745639755894    0.46734984752504    7.93352488621503
C         1.38113601537496    0.60256217992841    6.91921337635754
Si        0.58442159644056    1.01944962621862    5.22513824228259
C         1.87070774391339    1.19328837424266    3.82323863033439
H         2.52354681474236    0.33013569155427    3.77598119389451
H         2.48662674275787    2.07757333000337    3.93946324405077
H         1.36007279354960    1.26964493832230    2.86943646702098
C        -0.60179662282717   -0.40386687975461    4.73659428785452
H        -0.05905785560392   -1.31199483850160    4.50284201170938
H        -1.18782657090401   -0.13847540764718    3.86258451260125
H        -1.29423884911136   -0.63272762221328    5.54095884215724
C        -0.49188160256800    2.61343946943030    5.25926136229114
H        -1.51188755889393    2.38745261448212    5.55501050758100
H        -0.52643776700124    3.09208990254335    4.28532155224474
H        -0.10055962215774    3.34622516563586    5.97712101732240
Si        2.75912946614900   -0.70237707995751    7.02014155897831
C         4.45058535081080   -0.17099688128649    6.30684512857252
H         4.90483370483049    0.62068255899391    6.89361537336817
H         4.37736862154631    0.16145303478542    5.27750160645385
H         5.13132920926352   -1.01719848160902    6.32447063521338
C         2.28637214075663   -2.29709002618439    6.06633866984997
H         1.30248875187181   -2.66684043346743    6.33658398612410
H         3.00180510219940   -3.08933477847963    6.26690244211473
H         2.28512347426031   -2.12366377748999    4.99509698668338
C         3.10864730818900   -1.17655915160950    8.85011731976645
H         2.42774843295013   -0.68829180588665    9.54023436112975
H         4.11748904580890   -0.90031903339627    9.13984664123754
H         3.01112268977840   -2.24698722851895    9.00430390400835
C        -0.08518090510400   -0.69453252159360    8.59249129810479
C        -1.10427851587114   -0.60564212413425    9.51028948100982
C        -1.66159548159206    0.64096200921853    9.79584267290694
C        -1.15229390900303    1.75429722690218    9.15950770914497
H        -1.53788624694418    2.73992568464369    9.37043476724267
H        -2.47381710871272    0.73803927300999   10.49844701587285
H        -1.47739174914817   -1.49191035197804   10.00371548824640
H         0.36843468647984   -1.64109738085069    8.35113817915885

