71
CSD_code = BAJWAL | q = 0 | S = 0 | Stoichiometry = C28H38BrN3Ni | MND = 4
Br       13.90426867203577    1.75659769675365    8.82686794208858
C        13.79079551203194    1.15663651504883   12.14669844208609
H        13.78079315357493    0.19328175269708   11.63579809189261
H        13.96442815136041    0.99180531753540   13.20825537257842
H        14.61447535078840    1.74991627809177   11.74800088562874
C        12.50136011399396    1.85973211698133   11.93514445528015
C        11.95039648817384    2.84481388679803   12.81254940990962
C        10.73078001218970    3.19404020531320   12.29090315803206
C        10.55407640449986    2.39689466380025   11.10426028956201
C         9.42184046510283    2.32712373747765   10.33385589984909
H         8.59798071839617    2.97496450142547   10.59424898674563
C         9.24142371266888    1.47379414380535    9.23845477904972
C         8.07675209078521    1.40782737284697    8.40189494205326
C         8.35148688281985    0.47832964769962    7.43062758993875
C         9.67780344085859   -0.00226624422987    7.69624258214133
C        10.38675505536374   -0.93261299204461    6.92707571006655
H         9.87775559562811   -1.35181811183952    6.07188013845373
C        11.66951325539945   -1.35301748002353    7.16847721803106
C        12.37332500245100   -2.37740525463199    6.44040827160227
C        13.57890828869006   -2.53985900546430    7.07276485428555
C        13.59848155594522   -1.61088942952146    8.15938589192170
C        14.72471961128814   -1.47418230527542    9.11561539510147
H        15.53100607123661   -0.89961526390624    8.65742442062849
H        15.10965835472494   -2.45399835269620    9.39136601715878
H        14.40521454236122   -0.95020590695825   10.01464666425951
C        12.63615604519244    3.38848089966289   14.02036686361090
H        13.14351379259653    2.58116894548943   14.55449398884456
H        11.89694859362033    3.82240394614920   14.69691317156410
C        13.65963988469683    4.45899157404961   13.63517835601264
H        14.40275063390531    4.05102021869290   12.95510527388196
H        14.16613758571939    4.83476532168409   14.52127539223503
H        13.16625120855021    5.29094653379076   13.13848790629869
C         9.75726589385602    4.20447335474594   12.79060997772715
H         9.94703805493635    4.40535657042169   13.84665963011670
H         8.73908268113026    3.81715361884198   12.70240422156603
C         9.87432201578124    5.51074205321346   11.99998268255607
H        10.87269265945305    5.92728464639858   12.10745054795702
H         9.15279089847104    6.23923943250549   12.36285583951978
H         9.69388401239080    5.33492826302066   10.94204866600756
C         6.82710848198139    2.19542139141697    8.60937591573443
H         6.27024088951664    2.25036100441235    7.67191835412703
H         7.07705740544683    3.21688714218014    8.90629556800272
C         5.94172492713008    1.55547753076744    9.68201837623696
H         5.65435204936006    0.54983424070054    9.38344566352111
H         5.03856656654316    2.14351851234439    9.82991681739864
H         6.47337993979516    1.48883267620717   10.62907289065672
C         7.47516857492999    0.00485522298467    6.32031761892720
H         8.06499782020334   -0.11638846869481    5.40848993446087
H         6.70495424994681    0.75186465356262    6.11925430683280
C         6.80369019498853   -1.32493458737022    6.67311680272166
H         7.54979862906923   -2.08815175331841    6.88367008271218
H         6.17974239455289   -1.66606628193229    5.85002561987947
H         6.17889425038030   -1.21010644554979    7.55585762004041
C        11.83067105485589   -3.11956900655012    5.26798708010434
H        12.65750808562412   -3.56099401418036    4.70843223960704
H        11.30783162169176   -2.42730852401666    4.60351103642102
C        10.86950149082152   -4.23187533251503    5.69804967216978
H        11.38028050963466   -4.95031340223540    6.33489632877859
H        10.48474533216362   -4.75587545341494    4.82599409358340
H        10.03070637876368   -3.82262075796176    6.25654196798366
C        14.68532232698941   -3.48604513913609    6.74266208781256
H        15.64097837427636   -3.03736050310119    7.01985344172255
H        14.69901452769438   -3.66368716031956    5.66520274689929
C        14.52292174053657   -4.82513241230300    7.46617462859073
H        14.49250598520679   -4.68111897954096    8.54416114121677
H        15.35380361019844   -5.48604398904680    7.22977353591852
H        13.59870665540037   -5.31141196250528    7.16328192289704
N        11.68488406233448    1.61374889527230   10.91783009269384
N        10.18083437675008    0.60160319480640    8.79926905984607
N        12.47600248821282   -0.90313942222634    8.20631407672274
Ni       12.08083254233106    0.52889626291386    9.40530934953795

