71
CSD_code = BAJWEP | q = 0 | S = 0 | Stoichiometry = C28H38IN3Ni | MND = 4
C        -0.44378587244217   10.65279920047100   -1.54048272392198
H        -1.45843124705320   10.99248769161322   -1.33144058409028
H        -0.10383410290999   11.13482806012372   -2.45712868075781
H         0.19866467436903   10.96306575204920   -0.71809080148322
C        -0.42208319459759    9.17764311251803   -1.69649094272670
C        -1.00836611315371    8.47484051433362   -2.79322726164354
C        -0.76634775982698    7.14264979820805   -2.57727902737546
C        -0.00605445989856    7.05999101658991   -1.35718462976605
C         0.51161036466825    5.91422069459892   -0.80843481669130
H         0.28042680074533    4.97947414373295   -1.29734215088453
C         1.31105970323724    5.85479697561608    0.33887656416560
C         1.80833813975422    4.66299905685955    0.96757137778407
C         2.48880140720632    5.07323835348172    2.08588892926313
C         2.39301910185598    6.50602452729878    2.11352886128274
C         2.90701534460187    7.35141762881030    3.10357404764662
H         3.44739787428573    6.89000090554530    3.91667654161996
C         2.78637574272576    8.71814114976436    3.11462724917440
C         3.39476472700879    9.61837761876085    4.05836041285689
C         3.11933416951004   10.88807535832007    3.61642961866337
C         2.32669643893508   10.74412027630083    2.43777569256708
C         1.81441040800988   11.86237417886161    1.60666822540899
H         1.66203939109981   11.52973078202948    0.57858676604423
H         2.52048362383406   12.69057425374364    1.60342957172256
H         0.86414801825035   12.22362114129757    2.00315109991487
C        -1.78503097669169    9.10786057305847   -3.89922760639564
H        -1.71924827001860    8.48737230754365   -4.79529644915203
H        -1.36142482383843   10.08594994133688   -4.13775041378709
C        -3.25440090438822    9.27605596092083   -3.50452534287788
H        -3.70133737327965    8.30803818219338   -3.29022655008204
H        -3.81195223324158    9.74644554295806   -4.31113140998427
H        -3.34445927854897    9.89300299022196   -2.61407577123005
C        -1.13339583603364    5.98660982914889   -3.44295694654659
H        -2.00091921417963    6.25115558302778   -4.04956815230698
H        -1.40887696194462    5.13084678692025   -2.82267464817271
C         0.02598259751370    5.59728697516694   -4.36513142861336
H         0.29299007787659    6.43232948638931   -5.00921003099786
H        -0.25477240915085    4.75307314829923   -4.99065461778004
H         0.90383372692219    5.32314361069938   -3.78407614850784
C         1.61406345913530    3.27722660791250    0.45135805632332
H         0.59345782100430    3.16085930780258    0.07868655365136
H         1.75269515199693    2.56244948572596    1.26477194031931
C         2.60552252211310    2.95768192954124   -0.67053686374890
H         2.48901915986093    3.65524925500979   -1.49731441150952
H         2.44553561510195    1.94810544381583   -1.04245568371174
H         3.62718248842250    3.03326511912227   -0.30515198654821
C         3.22196040298124    4.24522157691551    3.08649140733461
H         2.84754985115081    3.22019477820155    3.05667993099424
H         3.04264946596910    4.63436400099219    4.09166985741980
C         4.72669295923328    4.23743410678600    2.80430187954783
H         4.92469575489970    3.81782820347668    1.82055506313114
H         5.24927683770562    3.63848723519569    3.54680129172316
H         5.12774805551487    5.24854858312958    2.82821624898560
C         4.21993515683427    9.20768927623850    5.22913949804351
H         3.80288938064536    8.30362126399010    5.67777307611746
H         4.19443045970399    9.99575973310867    5.98349633536020
C         5.67275876202213    8.95083235315665    4.81722727669954
H         5.72565673110180    8.16375723038220    4.06809611247836
H         6.26363823404288    8.65064440825502    5.67950756095079
H         6.11051193966478    9.85206399644123    4.39349473104757
C         3.49320543524247   12.18728536840225    4.24778080033944
H         3.74145432577802   12.91979061682019    3.47566321514229
H         4.37860866569999   12.04955270948487    4.87115413991958
C         2.34452902380864   12.72431794170321    5.10480490234019
H         1.45345267055822   12.87457719084403    4.50094885744309
H         2.62156834087759   13.67284164379450    5.55904892097922
H         2.10167025743117   12.01731315778975    5.89461999619706
I        -1.08847573536501    9.65510023122858    1.85707292253767
N         0.16612929977663    8.34118334337377   -0.84911666633665
N         1.69465103198603    6.94698966510900    1.04026499608567
N         2.12406671304513    9.46395414211979    2.14974993855137
Ni        0.99919846084458    8.82634698531589    0.77676227984617

