259
CSD_code = BAJXIU | q = 0 | S = 0 | Stoichiometry = C114H128Cl2O10P4Pt | MND = 4
Pt        6.32769646367446    8.64608262069891    3.93877606078883
Cl        4.55575381398487    8.12719564882590    2.54618192082042
Cl        7.64650606367397    9.32871340925270    2.15486400677484
P         7.90548813390532    9.52495243352919    5.30269217121576
O         7.27030673426101    9.83247008815285    6.72102106901903
O         9.22570603102801    8.62421679413051    5.54151543539363
O         8.52786181458123   10.96021630857458    4.93047415759413
C         6.48084761968074   10.93655825639545    8.67272016800718
C         6.55294576143762   11.19299945397269   10.03483996638617
C         7.51846069032540   10.62018706029293   10.84731739718997
C         8.41220886398779    9.75268064688902   10.23772790926466
C         8.38333649406218    9.47526816087574    8.87909809641661
C         7.43260688471254   10.10228062400007    8.07439503622046
C         7.60244252812913   10.86276169821573   12.34590447849653
C         9.00800945226326   11.36605651752676   12.70194849310120
C         7.32302678879527    9.53877866329248   13.07049791712039
C         6.58816977279122   11.90157046575058   12.83164350380294
C         9.37850356550367    8.49518779195036    8.32768863753376
C        10.42443621309737    9.21739965567151    7.53045637117411
C        11.48155309585408    9.87971514026920    8.13839694798548
C        12.41608542915253   10.58889958305019    7.39745151918859
C        12.27342190207744   10.59633320305717    6.01288207626395
C        11.23271051028915    9.93955446972010    5.37759113696751
C        10.30502206638009    9.25591463363098    6.15155806692616
C        13.57180791641178   11.34579916464783    8.03392450214208
C        13.57898161962864   11.23354847387820    9.56087996343231
C        14.89585437493384   10.77661343972920    7.50599380276712
C        13.45742621661365   12.83114606227254    7.66350059097699
C        11.10139691423430    9.93234693268307    3.88500304973998
C        10.33825940311784   11.09928454594374    3.31139532506516
C        10.90317765885172   11.77310502561441    2.23437311586727
C        10.23182578128725   12.76446649329778    1.54052804633686
C         8.92106841750625   13.01902297532997    1.92394684249681
C         8.32128538488612   12.37246256990284    2.98931348625245
C         9.05918659184199   11.45020421082085    3.73916778779040
C        10.83861813697831   13.52400442123411    0.37206975797408
C        12.29858573302531   13.14092305294445    0.11600767935231
C        10.78570280429506   15.02905674377720    0.67006652809952
C        10.02969069634337   13.21326029196763   -0.89461091624796
C         6.85167396481705   12.57805695145826    3.24054191928122
C         6.59431062712981   13.01688490828039    4.65111879851866
C         7.15569724125291   14.19538099392199    5.11231328715370
C         7.06671110534596   14.58518571287709    6.44356752433399
C         6.44781758432198   13.70851922012837    7.32083234727758
C         5.88013355260093   12.51861457322996    6.88804450966959
C         5.89901258575599   12.19688491899321    5.53660867765359
C         7.71969319571796   15.88142449407367    6.89611134219445
C         7.37602219267555   16.23030199736039    8.34690225426543
C         9.24174172229204   15.71884774248500    6.77520946495059
C         7.25086474006874   17.04259955381032    6.00997607907548
O         5.31442301027521   11.01152009383650    5.10629145355209
C         4.10726629082485   11.17180078294991    4.40038731971968
P         2.70873367163534   11.73802469207030    5.49413596219568
O         2.49477281011116   10.94765424801163    6.71151762317115
C         1.28339099323920   11.65903558460250    4.35971012961660
C         0.27188406368532   10.78019399444558    4.72151600878950
C        -0.83420681016131   10.61757133065184    3.90770543151668
C        -0.93315183559355   11.33812072586219    2.72914153105560
C         0.07201535910021   12.22165164744996    2.36938652314213
C         1.18080949099533   12.38352565797691    3.18008911342304
C         3.02540342845185   13.50230785754590    5.84566325551353
C         2.73496901959907   13.92579819666772    7.13508114192292
C         2.95371994513727   15.23933871629317    7.50615546039803
C         3.45924261203111   16.13952056917221    6.58357830512611
C         3.74769972110519   15.72161024974948    5.29470464061860
C         3.53369185456715   14.40723812844062    4.92398878435180
C         5.34823795635788   11.53198148257006    7.88217797774357
P         5.19136142635398    7.55537696411567    5.56766805508551
O         6.22551454597639    7.08546654645564    6.67723536768757
O         4.05561442989694    8.40727114404730    6.32347519570164
O         4.43802239572564    6.18039649725295    5.21132209358736
C         7.48324844768677    5.64952383929469    8.09842730401795
C         6.42627672774002    6.55771604133503    7.94872885818432
C         5.75051648921855    7.00082785997304    9.08312005664705
C         6.06653882464182    6.45723150719699   10.32362036242010
C         7.06034426289208    5.50957741940764   10.49022581351952
C         7.76794379346299    5.13933600831478    9.35336593501347
C         7.42479390229154    4.90677700505482   11.83742524691514
C         8.85921911171302    5.32257166079234   12.19140085386188
C         7.33247584875496    3.37722817268785   11.74727631158909
C         6.49644153746814    5.37365713975728   12.96166752558086
C         4.70101006514105    8.07500593408707    9.02520621502196
C         3.41616900806797    7.53952382762736    8.46668571898168
C         2.50688918640317    6.84455923732356    9.24546523152319
C         1.33743587872973    6.31216892927046    8.71174876324360
C         1.09954502862245    6.50777465140750    7.35850428177201
C         1.99169435171346    7.20366648052622    6.55428710189981
C         3.14737185174734    7.71937563561186    7.11782115330407
C         0.38511533070810    5.54616562981727    9.61764412014158
C         1.12436593466296    4.33650342679059   10.20667650975479
C        -0.85185191586064    5.03451271523123    8.87495366030970
C        -0.08511627252681    6.47166780516865   10.74836441695677
C         1.73322038328883    7.40585058590235    5.09310583206826
C         2.20790857205521    6.26734768666437    4.22811887272246
C         1.29969975158885    5.70311510663872    3.34504866763941
C         1.65628267426750    4.74444446293251    2.40786718838166
C         3.00144828382779    4.42267689240065    2.32909333080911
C         3.94324598972964    4.96404097308655    3.19132030862329
C         3.53547920003670    5.83378496466225    4.20677322921562
C         0.59806557287678    4.14767708429750    1.49438602657774
C        -0.01841820831755    5.26899026747217    0.64705015551520
C        -0.48809844736245    3.48433789656196    2.35289358771574
C         1.16955344534633    3.08928410682538    0.54732749846286
C         5.40199607671596    4.71044489979136    2.91878360313997
C         6.09885920290652    4.10932432651685    4.10121354492194
C         5.70949449670994    2.86173753320604    4.55871866015952
C         6.21724732129836    2.31202949629574    5.72960190313599
C         7.10014788119994    3.08893738423725    6.46472152678566
C         7.50554963304348    4.34344171038130    6.03354175461037
C         7.04602026734082    4.83625133510227    4.81718034285565
C         5.70849025342146    0.96609205867952    6.22235559276598
C         4.27409952062545    1.16767900897170    6.73275362338958
C         6.56347065757730    0.40482420785772    7.36271839810163
C         5.70828838434576   -0.06142482232690    5.08364667732163
O         7.43855575363038    6.10837875058981    4.42618552505745
C         8.33990454442409    6.18350514530438    3.34785237040601
P         9.80330229267850    5.06309491340340    3.51803457969399
O        10.52025986555398    5.13683720130623    4.79812395334178
C         9.20673134110597    3.39345664740878    3.11033664366562
C         8.56709068303404    3.12345937214207    1.90813087904660
C         8.14373741368132    1.83711707931772    1.63277851436164
C         8.37203977751354    0.81954638878376    2.54598192487599
C         9.02058282821509    1.08767636223147    3.74005611938310
C         9.43319255984121    2.37620198164061    4.02423299195617
C        10.84794820708708    5.51968164187052    2.08782863200668
C        10.68373292253957    6.65724534781669    1.30974271023755
C        11.58946353538609    6.92864176510823    0.29670768346236
C        12.65121782121260    6.07358050975675    0.05574046113801
C        12.81739376209187    4.93841471492924    0.83365460389982
C        11.91881259839999    4.66703431437767    1.84771325249012
C         8.32656643356812    5.22287919211039    6.92870922930491
H         5.80550625584813   11.84671082710599   10.45391740484571
H         9.16028594084737    9.24755218747265   10.82952664291071
H         9.07346730509189   11.57315393525223   13.76802921180563
H         9.76865874187684   10.63203123041447   12.45263538647511
H         9.22669450307079   12.28240770478316   12.15800753139947
H         7.37468306657146    9.67936874875380   14.14820542445317
H         6.32923936106971    9.17752360269857   12.81464273793806
H         8.04512263191986    8.77774987976908   12.78788397300245
H         6.71152651987217   12.05691018424732   13.90159438467363
H         6.73977273742402   12.85573155681782   12.33268048782619
H         5.56875727422993   11.56609312801802   12.65800533103401
H         8.86586464434163    7.78328187488010    7.68366749344341
H         9.84242668904905    7.94773947054638    9.14943734570604
H        11.54494815305797    9.83410149175295    9.21299406859936
H        12.98196604775470   11.12799041796887    5.39596554124020
H        14.42003662148456   11.79594429212554    9.96143214982353
H        12.66653182735174   11.64396037718346    9.98708450722843
H        13.68732867143257   10.19835816651277    9.87536544892458
H        15.73587681022454   11.28921305428521    7.97004915770721
H        14.96656669198670    9.71606793155293    7.73703757670316
H        14.97667213435831   10.89586240643367    6.42953175391813
H        14.26611524937984   13.39569307125418    8.12293749360856
H        13.50788960964207   12.97637062708832    6.58829532353373
H        12.51010034268599   13.23363935555165    8.01592195462618
H        10.58156873482633    9.01750921784904    3.58232937284910
H        12.09710602120738    9.91055988700644    3.43794513965618
H        11.89617261078703   11.47967020080834    1.93531664065938
H         8.32623174512554   13.72607042715903    1.36542835586486
H        12.69155441481687   13.73705085280663   -0.70528355196887
H        12.91164924740866   13.33070522190148    0.99407113438865
H        12.38405186988397   12.09297879442297   -0.16009805252008
H        11.22539418047467   15.58987422023639   -0.15209820972940
H         9.76338121296001   15.37019256665354    0.80514838174268
H        11.34291935342849   15.25196934637718    1.57769207073906
H        10.47260703425044   13.70990958632403   -1.75556460690384
H        10.01928977534882   12.14132523524683   -1.07693445423617
H         9.00116192320553   13.54831319319267   -0.79808844555873
H         6.36733255336897   11.61664338650136    3.04730923633020
H         6.46545800628186   13.31122374839641    2.52765414540797
H         7.70231956377091   14.79774909074029    4.40201099034294
H         6.40754526519730   13.91906129859502    8.37707682478011
H         7.80222970285852   17.19921498971604    8.59983604116002
H         6.29829285385264   16.28448604392244    8.48429578429705
H         7.78656840306601   15.49591408034754    9.03538984498903
H         9.74644315005135   16.62351024765594    7.10858531577765
H         9.57964688110563   14.88552036546967    7.38776515014380
H         9.53196971106360   15.52001107124797    5.74689984166014
H         7.70382308175150   17.97376136071836    6.34466210269590
H         7.52706820189778   16.88903579685876    4.97115074287969
H         6.16994086843188   17.14152890013916    6.06863773715517
H         3.83735987052244   10.17772258501955    4.02301543766774
H         4.21166702445758   11.84922626078407    3.54538462768786
H         1.95735084307191   13.07707061096753    2.89591232067116
H        -0.00880064177221   12.78467200634632    1.45103423631487
H        -1.79442824652647   11.21393717183386    2.08926850219694
H        -1.61967985561862    9.93180586424110    4.19070866630467
H         0.37353834901636   10.23511853370424    5.64884640613570
H         2.34087522568849   13.20390298272902    7.83564746280867
H         2.72779035820404   15.56359625494139    8.51171809022073
H         3.62602854246050   17.16855761006646    6.86810423386602
H         4.14165298181940   16.42302263389545    4.57371156082259
H         3.77592248821956   14.09381739198393    3.91977990307782
H         4.64700904396579   12.01839044910080    8.56178321474326
H         4.82128906423442   10.74523537320209    7.34193168706349
H         5.51252997350065    6.82012918103627   11.17354505829129
H         8.58736569060122    4.44112998803131    9.43335339417684
H         9.14077943526777    4.91717050107819   13.16093602707545
H         9.56777001657834    4.96319687790588   11.45057914546765
H         8.93279084880638    6.40711533922009   12.23536231168136
H         7.56111983637296    2.92997092177088   12.71236770763247
H         6.32695019976100    3.07932682391301   11.45779806863987
H         8.03011041498279    2.97935585009076   11.01621993372961
H         6.78039143373790    4.88707529897348   13.89265438456785
H         6.56937464567175    6.44803330646765   13.11026048203439
H         5.46347900515895    5.11109117334467   12.74591342004308
H         5.05243446270385    8.88223063444549    8.38625671093688
H         4.53701645979738    8.47269488314697   10.02786857815345
H         2.73564626529140    6.71617974164134   10.29256386041349
H         0.21106297647458    6.11581140778012    6.89098879966864
H         0.45704346800858    3.76438106659186   10.84799172997421
H         1.47744445004367    3.68807589499421    9.40760952634668
H         1.98261022538434    4.64603518749285   10.79634193852064
H        -1.49426704509989    4.49563904434729    9.56868013802558
H        -1.42497108619621    5.85909406266037    8.45803636966898
H        -0.57308068268376    4.35195412809522    8.07576217005708
H        -0.78814635195625    5.94874585528941   11.39350144974147
H         0.74908860090731    6.80918587887252   11.35649430272113
H        -0.58020489882091    7.34711337690418   10.33415182529800
H         2.24664941476108    8.31467964270507    4.76364928115952
H         0.66362665289031    7.54780960062052    4.92808797653340
H         0.27874004988446    6.05110891246990    3.39042984858504
H         3.35718382331947    3.74998091617222    1.56570918932444
H        -0.74787838668776    4.85759965754003   -0.04776414373138
H        -0.51697516622630    6.00591631306621    1.27012699101153
H         0.75732258755308    5.77638303654580    0.07850685632119
H        -1.25258261791236    3.04376391137039    1.71621641501793
H        -0.05368009635164    2.69789852408146    2.96655024680606
H        -0.96636353494684    4.20400952865486    3.01095699231415
H         0.36689656416956    2.67083503866806   -0.05681126910696
H         1.90329988023627    3.52504263835339   -0.12599740891203
H         1.63174766873504    2.27689239774586    1.10346975047302
H         5.83201839521077    5.68333681324083    2.67462761624395
H         5.49950243465775    4.05758890218693    2.04803865492888
H         4.95877741155238    2.33620947067169    3.98814148821952
H         7.47619699126937    2.74651568896541    7.41502988997731
H         3.86966177611601    0.22896250176329    7.10648577839764
H         4.26108763769954    1.89870180217346    7.53859049886379
H         3.62924406115685    1.53167729028522    5.93672095631063
H         6.22346681477682   -0.59757275833056    7.61564693429552
H         7.60839690127278    0.34668701482515    7.06698211830606
H         6.48067383142808    1.01779259456568    8.25657365650048
H         5.39020565299702   -1.03220253767591    5.45895147890297
H         5.03135306810190    0.22567596052543    4.28477188504016
H         6.70693057925376   -0.15911083396321    4.66690526273624
H         9.20934007630404    4.69000586615751    7.28303567915322
H         8.65287543328728    6.09164858095028    6.35696489273890
H         8.72216700290262    7.21059057534624    3.36528143715888
H         7.85781881232303    6.00129263938315    2.37870696836328
H         8.41314107372826    3.91757925770257    1.19090202401017
H         7.64302739787023    1.62140971803291    0.70000290888783
H         8.04830156161922   -0.18607667186731    2.31947495864340
H         9.21093085363343    0.29144382334032    4.44538810037929
H         9.93922283875077    2.61597643521729    4.94800332173914
H         9.86076193277989    7.33610360526824    1.47519037207314
H        11.45914590456504    7.81498281461061   -0.30664011804202
H        13.35144763111473    6.29130821400525   -0.73754230298040
H        13.64588525591960    4.27015113808527    0.64907066656653
H        12.03457636066529    3.79089184140644    2.47248907650325

