97
CSD_code = BAJYAN | q = 1 | S = 0 | Stoichiometry = C47H44NNiP2S2(1+) | MND = 4
Ni        8.79201081089369   -0.37246942232160    3.09328315748195
P         8.55260038002825   -2.52071002213796    2.66604246091940
P         7.47459292292602   -0.22801463859132    4.83843096979043
S         9.73822416625641    0.03263323305341    1.09883121814740
S         9.59043298461259    1.69965797430128    3.36297221516993
C        10.03392114798090    1.58770604431688    1.72603282643982
N        10.53494801250630    2.60115272559793    1.04068768218580
C        11.01038588799652    2.43111243413213   -0.32982909004032
H        10.82344132777283    1.38146465759756   -0.58531059039562
C        10.23370885430118    3.31082001719789   -1.30483089852621
H        10.34454564624579    4.36636325391034   -1.06973408142077
H        10.60838725903700    3.14464521448359   -2.31068626871484
H         9.17581344992707    3.06018058575845   -1.29122774148098
C        12.51498934707204    2.68364210432236   -0.40574059476767
H        13.03800141891429    2.09378211563316    0.34367797611894
H        12.87890128723810    2.39079159187935   -1.38628161137800
H        12.75435423219994    3.73314719504767   -0.25529784093147
C        10.69071558019617    3.88061527497293    1.70832396424202
H        11.11409747771243    4.58454077944896    0.99013725531644
H        11.40348282050163    3.77156492446606    2.53518312154517
C         9.39538958397618    4.44542948973741    2.24815254670082
C         9.43156468242790    5.26950360412905    3.36565118225349
H        10.37577400999951    5.46831960783757    3.85142205204794
C         8.27100994214920    5.84003503193150    3.85440775378655
H         8.31666756772488    6.48758534133163    4.71649105177479
C         7.05805361448478    5.58199040339523    3.24004053313291
H         6.15201846264858    6.02993344043084    3.61755896080861
C         7.01220554016743    4.75031717758226    2.13544143634276
H         6.06909087128321    4.54139127506630    1.65286341543912
C         8.17508266774588    4.19146623532707    1.63676106630978
H         8.12735108686303    3.54864412915505    0.76975064089721
C         8.71339335764739   -2.99695019290390    0.91650206255960
C         7.85917059215787   -2.37550165051668    0.00689595914515
H         7.15626635283429   -1.63328107165298    0.36389647643503
C         7.92161035314922   -2.69503891169579   -1.33570234257284
H         7.25705633779166   -2.21363341236156   -2.03751638977957
C         8.84525882612177   -3.62779793684208   -1.78071794655283
H         8.89836001855349   -3.87564285658687   -2.82973692916836
C         9.70736763437442   -4.23288922308344   -0.88181321074089
H        10.43409517369817   -4.95106308041851   -1.23028827004191
C         9.64839684879272   -3.91960037579553    0.46548927018838
H        10.33299923163785   -4.38654187788715    1.15791906320671
C        10.04364168842961   -3.16472476209033    3.48088042681209
C        10.98368133513704   -2.21931631087421    3.88936557898523
H        10.77781779965524   -1.14734761385857    3.72647381734552
C        12.15626234389332   -2.62010286240853    4.50214553998992
H        12.88349776576478   -1.88759958315825    4.81856960333599
C        12.39055376266180   -3.97017315043937    4.71360854219954
H        13.30439115086264   -4.28812537537328    5.19150024913890
C        11.45312030710486   -4.91330154671686    4.32088237064114
H        11.63908043362289   -5.96225641063969    4.49493564605018
C        10.27813806966999   -4.51755890478540    3.70604053820780
H         9.53977494725182   -5.24915833195252    3.40906299977221
C         7.21736539346213   -3.60301058557186    3.25963674231139
C         7.18637578381961   -3.96169594232093    4.60491648106353
H         7.96848380329408   -3.62265194583450    5.26855688572774
C         6.16748611726999   -4.75968587526505    5.08848756899630
H         6.15704740818538   -5.04010945134305    6.13108722419923
C         5.16540964948734   -5.19852220238388    4.23778172133673
H         4.37072742657804   -5.82314152258049    4.61579516293021
C         5.18870340777993   -4.83845332034548    2.90081489147928
H         4.41240068389352   -5.18280274036238    2.23456092285358
C         6.20708874390649   -4.04111079356765    2.41020769298816
H         6.22235287590919   -3.77019326054063    1.36493701902410
C         7.66010965666753   -1.01412491836993    6.46197701983394
C         8.78763550699228   -1.77732759174150    6.74179000758534
H         9.54855295770101   -1.89848226013548    5.98140590073160
C         8.93679601615226   -2.36182505986107    7.98730109797102
H         9.81333995371162   -2.95444048257565    8.20210494467210
C         7.96355949237607   -2.18047537876619    8.95603227045203
H         8.07766804687810   -2.63760768002675    9.92690989466212
C         6.85050350060782   -1.39797797863642    8.68758059048950
H         6.10301478670161   -1.24272003317635    9.45080227125660
C         6.69886993630001   -0.80588458733706    7.44757310998773
H         5.84790099799678   -0.17056876788819    7.24473050222158
C         5.92815219509748   -0.81359777467633    4.07917415723004
C         4.93119814993825   -1.55624005676264    4.69179678353717
H         5.02431056602270   -1.84544014122292    5.72762309807025
C         3.82091976797702   -1.94103377830309    3.95716795310605
H         3.04440577685107   -2.52196150669115    4.43072640322892
C         3.70328311284691   -1.58760312408879    2.62399511776226
H         2.83407292392147   -1.89104876577067    2.06116018516263
C         4.70190322684010   -0.84909515154941    2.00510315898019
H         4.60570333705072   -0.57633865891045    0.96444723884124
C         5.81386952549310   -0.47054258490626    2.72991675255370
H         6.61892994942964    0.11829379110868    2.26450727651386
C         7.07077842202284    1.47463228787770    5.34383927604675
C         5.90080028216731    2.12365336723868    4.96951727495072
H         5.17101219005986    1.62014039765759    4.35158696227007
C         5.66654937758058    3.41605229526391    5.40507994965141
H         4.74965606986001    3.91313852314802    5.12640501607955
C         6.59788189045285    4.06772356897764    6.19527682411985
H         6.40694201740629    5.07423943477589    6.53412811530107
C         7.77534373674407    3.42942007134714    6.55181677191807
H         8.50567747186122    3.93918538047608    7.16148605162375
C         8.01328234805359    2.13704072159920    6.12809008135437
H         8.92773814216106    1.62675774534730    6.40266780453090

