31
CSD_code = BAKBIZ | q = 0 | S = 0 | Stoichiometry = C6H16N6NiS2 | MND = 4
Ni        5.95252118017438    2.47536910886781    7.33567835490678
S         4.93756506513760    4.44862273462099    7.54854073759944
N         5.19802898722496    2.04451067006181    9.10976727194725
N         4.27695344443921    2.97450185276299    9.66855769318943
N         3.39840681513167    5.08920179466029    9.58717583983702
H         3.10155344743755    5.82056081643402    8.96397333643306
H         2.78232541800212    4.84439028746317   10.34387437307440
C         4.14745428390930    4.09025552537719    9.05458107113249
C         6.37764982557518    2.05279930321696   10.00360105971760
H         6.90106333979697    3.00847633671505    9.89906727600427
H         7.04979945466396    1.23324421784509    9.74916091290189
H         6.03578352080568    1.94797707863684   11.03786207255834
C         4.51530325692905    0.74263705106945    9.20490477636082
H         4.14291380010436    0.61758716367803   10.22564462110640
H         5.19705372925973   -0.06679795398935    8.95210005903476
H         3.67007342822648    0.73549035621509    8.51621833853961
S         6.96745095971605    0.50213638245443    7.12283752819468
C         7.75757294461638    0.86044507511509    5.61680457095909
N         7.62814249491334    1.97620638235788    5.00282327938444
N         6.70709429207576    2.90625014502749    5.56160357267700
C         5.52751203986536    2.89806325543903    4.66772058220754
H         5.00402475608865    1.94242784371370    4.77222599527313
H         4.85541445783706    3.71767035531690    4.92213841367430
H         5.86943093703231    3.00286501302257    3.63347424189564
C         7.38989586884842    4.20808130416997    5.46646361703942
H         7.76232119397721    4.33307782231100    4.44572613214105
H         6.70818144429470    5.01755974421223    5.71923124339269
H         8.23511432003333    4.21519354198728    6.15516125972647
N         8.50654222250979   -0.13858436298066    5.08426180788030
H         8.80332783534115   -0.86995897728395    5.70748092541793
H         9.12262523603231    0.10614013150163    4.32753903579275

