37
CSD_code = BAKBOF | q = 0 | S = 0 | Stoichiometry = C8H20N6NiS2 | MND = 4
Ni       -0.00000138729983   -0.00000020313439    0.00000183203257
S         1.12216314633159    1.72160942532306    0.85643770529236
N         0.59350898662763   -1.00143596112180    1.58938471493785
N         1.54947914859645   -0.37605183344910    2.43703856076074
N         2.57586321039555    1.54479449194007    3.08643418949197
H         3.02529963046146    0.95875672265467    3.77481978477495
C        -0.65005997641727   -1.12000375961432    2.38422857964259
H        -1.37195237336736   -1.74976469505781    1.86349547987529
H        -1.07245481867038   -0.12217090382909    2.54169977915980
H        -0.40624307169487   -1.55836331911926    3.35693939720171
C         1.14598917697682   -2.34285659094227    1.33619208251452
H         2.04011471629837   -2.24609599997614    0.72019246943262
H         0.41706363511250   -2.96751130686659    0.82420297293477
H         1.42229912250211   -2.79249140898592    2.29416328730253
C         1.79823380560182    0.86393822331636    2.21045374051103
C         3.22304828170021    2.79331124786352    2.77838045659625
H         4.18525112577344    2.64915883992325    2.27354416642086
H         3.38633236997013    3.34706949080578    3.70244824738979
H         2.57102757129329    3.37169162685139    2.12612406063504
S        -1.12216046583076   -1.72161252224814   -0.85643836328858
C        -1.79823390515489   -0.86393929057188   -2.21045017373710
N        -1.54948074233006    0.37605100614027   -2.43703484468840
N        -0.59351019362965    1.00143634490076   -1.58938216225838
C         0.65005708053996    1.12000568634545   -2.38422820901068
H         1.37196078161664    1.74974678645060   -1.86348602419299
H         1.07243657903177    0.12217015289542   -2.54172202255770
H         0.40624035216354    1.55838791623859   -3.35692919550920
C        -1.14599007597729    2.34285726416202   -1.33619188726130
H        -2.04012857389252    2.24609426141909   -0.72021194508101
H        -0.41707339814118    2.96750726897912   -0.82418443920464
H        -1.42228041283575    2.79249841579304   -2.29416569402327
N        -2.57585744213598   -1.54479663263847   -3.08643481940345
H        -3.02529315325061   -0.95875714525712   -3.77481933880024
C        -3.22304509833516   -2.79331223091687   -2.77838162897301
H        -4.18524334703280   -2.64915821570342   -2.27353661426872
H        -3.38633873042683   -3.34706454444288   -3.70245125198587
H        -2.57102155457009   -3.37169860812691   -2.12613289266266

