42
CSD_code = BAKDUO | q = 1 | S = 0 | Stoichiometry = C18H19N4Ni(1+) | MND = 4
Ni        1.57128245765857    2.17654548458722    2.84057090059106
N         1.62108220421661    0.31688006209260    2.90498451211175
C         1.32374306215784   -0.34946646972102    4.07555133277638
C         0.67716669625040   -1.60135647769133    4.03081531300071
H         0.36466813002025   -1.98572839767789    3.07152041441198
C         0.42090222665869   -2.32432680849714    5.16905258711440
H        -0.08987787641813   -3.27165657929812    5.09297613676361
C         0.81087605090062   -1.84452722782984    6.42127437307375
H         0.62741010174133   -2.42948362828834    7.30768573621501
C         1.39797374340339   -0.60990871853524    6.50878692320514
H         1.66403503142166   -0.20184484112918    7.47217014785641
C         1.62791502341729    0.17545677522826    5.36259057579876
C         2.10689271089700    1.50105731352564    5.53800628961848
H         2.47517977851286    1.76706790874601    6.52857666578391
N         2.05691045422471    2.40779101008467    4.61988820836221
C         2.44418303699389    3.77531305578908    4.97219425054575
H         3.37975587055699    3.78551184871556    5.54093411812873
H         1.65619008935155    4.20366332711200    5.60492938628535
C         2.57999941761862    4.59056339062649    3.68315018551158
H         2.52567275048894    5.66693794727911    3.88517103587690
H         3.53976967438530    4.37164382513921    3.20498548079760
N         1.50858056096118    4.13526474500108    2.78876793087204
H         0.61098065251496    4.43105398583281    3.18528531078353
C         1.57297779122812    4.58831822253297    1.39328759046343
H         2.61697469206418    4.56121672641945    1.06824518763081
H         1.18820483271384    5.60539821239648    1.26390786074323
C         0.76190998976566    3.57111056295839    0.58482146704079
H        -0.30794562576175    3.69730738399583    0.79406552139832
H         0.91881734011589    3.69837473728304   -0.49135618831245
N         1.18521102570665    2.24509247245162    1.02717527076362
C         1.23590724669984    1.28044033799871    0.17116367252696
H         0.95226889517147    1.47325116079502   -0.86340390580120
C         1.71754645772046   -0.02034331939472    0.47201253669564
C         2.00875291248319   -0.88797818365392   -0.59909562623527
H         1.77718385408262   -0.56104291785025   -1.60156521206142
C         2.60613880548013   -2.10253899702465   -0.39131182636031
H         2.83297494353080   -2.75271022451577   -1.22039285434592
C         2.95302854369362   -2.47430392077028    0.90988583484360
H         3.47489767437223   -3.40310842257634    1.08066112054508
C         2.64380296705657   -1.66786284072060    1.97588803713977
H         2.93044715615645   -1.96913753438336    2.97207128997296
C         1.97400864978544   -0.43733498703318    1.80877240786733

