53
CSD_code = BAKFEA | q = 1 | S = 0 | Stoichiometry = C23H24N5Zn(1+) | MND = 5
Zn       -2.14926078183911    4.25373613850924    1.63633216592904
N        -0.23584930010522    4.14862199544012    1.34604471648278
C         0.43997908805678    4.63452738552338    0.27593016556661
C         1.80154654350853    4.31841102475990    0.05664219119278
H         2.28876021665487    3.64577365981132    0.74606915955447
C         2.50479194895423    4.80949356558037   -1.01054197087562
H         3.54332328900118    4.54264823092161   -1.13444124767404
C         1.88495331434124    5.64261028073043   -1.94658837569585
H         2.44670556200463    6.04516398156940   -2.77373081995048
C         0.54764613978405    5.89561323795539   -1.81872442271691
H         0.04332161273847    6.49015968942619   -2.56678921481659
C        -0.22056133812762    5.39088335446248   -0.74324812642701
C        -1.62068048175021    5.60163967678023   -0.84354242336890
H        -1.94824382195347    6.10900359619809   -1.75558777858425
N        -2.52426224909064    5.21373234647937   -0.00778258251125
C        -3.92562633853614    5.35886802481926   -0.31962831481176
H        -4.09679527027947    5.47728304540197   -1.39515047084636
H        -4.31909614840500    6.24352204948532    0.19582406889784
C        -4.64716609528676    4.11149880544831    0.19790991963743
H        -5.72550670843664    4.19443365715665    0.01732358425025
H        -4.26670598027336    3.24106252415237   -0.34017858990462
N        -4.33561725423801    3.94924270706213    1.61940154885825
H        -4.87155462203806    4.64205731624424    2.13506116911417
C        -4.62668309527904    2.62412039816644    2.16906722149821
H        -5.55173661625373    2.20431081513301    1.75712049435983
H        -4.74829416886780    2.73045965055977    3.24935249041790
C        -3.45974604769815    1.65615946738127    1.90372806040049
H        -3.56984374625484    0.76147554210529    2.52805418053753
H        -3.46988567699969    1.34588294721627    0.85375471031844
N        -2.22731404221319    2.35090052253431    2.15046314551773
C        -1.27656901412748    1.83871544587746    2.84016257311839
H        -1.39022456599322    0.83441125559999    3.25949510332299
C        -0.06359034522194    2.52867920257341    3.15819788205385
C         0.66878433267050    2.04872510131485    4.25947142585570
H         0.31468899091296    1.16109864898531    4.76339082332324
C         1.78473278312643    2.69693732323764    4.72541550012823
H         2.32197988727119    2.31794359725656    5.57972549086504
C         2.20804812717157    3.86307862626231    4.08907953357591
H         3.06256961560469    4.40292302548123    4.46766674812600
C         1.54893025800114    4.32531874889153    2.97595650496097
H         1.87904195501158    5.23368123836141    2.49297629483466
C         0.41842925303318    3.66921913438608    2.45476482489373
N        -1.97845683134624    5.42455949862241    3.36442875636440
C        -1.96399673343432    4.86012642287815    4.57061602647148
H        -2.45523958485219    3.90098377617826    4.65384722223160
C        -1.36532909947575    5.44438893852834    5.67224471005741
H        -1.37759348913754    4.94113483107100    6.62541913896984
C        -0.75347614270816    6.67888253737713    5.52165056165600
H        -0.27187923222813    7.16259750994463    6.35724179803160
C        -0.77937598759863    7.27872789218221    4.27184465369773
H        -0.32492511734563    8.24244219415567    4.10753387712813
C        -1.39648936026756    6.61543835622735    3.22674892053859
H        -1.42995763017598    7.04749105758913    2.23607697543970

