59
CSD_code = BAKGOK | q = 0 | S = 0 | Stoichiometry = C21H24BCl2MoN7OS2 | MND = 6
Mo        2.95520602904432    3.30684068662402    0.73389409125767
S         4.55689049643291    1.70355929322558   -0.12970939069327
N         3.84995732798263    3.30681919534809    2.21760693691428
N         1.49912147458642    1.92159272270786    1.36991978175677
N         1.83686951800053    3.30698786559489   -1.12040545361411
N         0.48332012672331    3.30687633374155   -1.07923188196528
O         4.51369944750477    3.30674215093816    3.20062981487687
N         0.20259907955360    2.06683725517785    1.04385136502239
C         2.19480410006350    3.30694249296927   -2.40604489818404
C         1.04847609893265    3.30687811649443   -3.20337666471965
H         1.01057349451007    3.30684331363913   -4.27340206360631
B        -0.25398222415494    3.30689699336135    0.26372192789203
H        -1.42389098062896    3.30691321140452    0.13504888048672
C        -1.46204148404871    3.30676624503887   -2.69274125935111
H        -2.10003228825864    3.30636608689917   -1.81695878450062
H        -1.68849992209468    4.18666672174624   -3.29337689912419
C         0.38334903611032    0.15405433512634    2.11723885901077
H         0.15411150750230   -0.78315892538267    2.58136648153376
C        -0.02007975314323    3.30683919965218   -2.32939167568839
C         1.63350714947478    0.76489421187883    2.02835675397916
C         2.93308811649095    0.26523147787429    2.53831817434210
H         3.39462615336993    0.99349204974751    3.20414149965809
H         3.62316459379994    0.08460378590986    1.70956810457730
H         2.78516857840497   -0.66445347535499    3.08094984147883
C        -0.50246796058027    1.01108576197907    1.48371036806579
C         3.58253686667868    3.30695995547454   -2.94155704566009
H         4.33425126842875    3.30728237182735   -2.15619953697310
H         3.73286450161074    2.42464733070367   -3.56286390100344
C        -1.96619801904429    0.85106263719451    1.29239032860379
H        -2.21614575110632    0.85236030460917    0.23301264261462
H        -2.50805806888764    1.66574730336205    1.76938863979496
H        -2.28833091419368   -0.08947225882615    1.73001215383010
Cl        7.11519768618846    0.20813844612533    0.82704505731234
C         5.94341305316805    2.59919007095754    0.42637331169380
C         8.24193302038904    2.61373512699731    1.20258395356895
H         9.11839167718152    2.06704055033393    1.51021219800850
C         7.10916078603397    1.92853725440084    0.81028550944098
C         5.94336856630432    4.01474218631931    0.42647129606401
S         4.55684379148284    4.91036112193364   -0.12961181321496
N         1.49915245025084    4.69215223501054    1.36993452848652
N         0.20264122268196    4.54698225855420    1.04378073066779
C        -0.50239318335420    5.60280140460563    1.48353391200109
C         0.38342655171772    6.45979100865971    2.11711255688121
H         0.15420916380752    7.39703157602356    2.58119670645423
C         1.63355167811002    5.84885582876941    2.02836790341172
C         2.93311216004376    6.34843291050468    2.53845845140930
H         3.39464016492117    5.62004274765705    3.20414784520217
H         3.62320295092616    6.52922303874952    1.70975433404488
H         2.78518221811696    7.27801975325190    3.08125547325396
C        -1.96609831426748    5.76290886149063    1.29207353974770
H        -2.21595785404973    5.76151545631792    0.23267551601370
H        -2.50805568096738    4.94830715998755    1.76910395865323
H        -2.28821527107311    6.70350744232263    1.72957015591073
H        -1.68823929315659    2.42722972979480   -3.29400320652039
H         3.73263187367369    4.18896154832141   -3.56335666086197
C         7.10908229433064    4.68539897502827    0.81049287900443
Cl        7.11504298482975    6.40579684991546    0.82750616771191
C         8.24188445889613    4.00019844335725    1.20270545813855
H         9.11833324475132    4.54689326392385    1.51036304690379

