59
CSD_code = BAKGUQ | q = 1 | S = 0 | Stoichiometry = C20H28CoN4O6(1+) | MND = 6
Co        3.93389779659527   11.83604203318767    2.69727997291408
N         4.08694883680923   11.36037536012913    0.78494910698258
H         4.41266083425194   10.41369820015526    0.57481587301634
H         3.23444544867696   11.49162739900094    0.23204897257019
O         4.41829601226605   13.51578712782357    2.12284473383194
O         5.15223610456097   14.70731167955639    0.41536899910491
O         5.80833403777690    7.18140088093454   -3.37849883459787
H         6.74218525457024    6.97823951617704   -3.51467492993605
C         4.90346109791116   13.65072407190552    0.92862557355836
C         5.10253767890427   12.29132983355167    0.22133101978788
H         6.09170754021792   11.93241945029421    0.52289589570745
C         5.00366201482997   12.37269618147839   -1.30177794961938
H         4.02371664930228   12.76501707920734   -1.58538785411796
H         5.75449569685207   13.08416469328149   -1.64514352794903
C         5.22901400755639   11.01295353443505   -1.90550363054560
C         6.51802321901150   10.53121003815198   -2.09600412844127
H         7.36238067831753   11.16147722813127   -1.86201461209811
C         6.73398634072483    9.26025831998758   -2.59215056349733
H         7.74295065557299    8.90407227623466   -2.74471446340949
C         5.65556407664607    8.43698207310340   -2.90398625624813
C         4.35957884601095    8.91259475599942   -2.71684932903068
H         3.53119719719380    8.27365304136304   -2.97685803675476
C         4.15668367737167   10.18561847639904   -2.22277740208259
H         3.14246123334062   10.54753781353302   -2.11221218957216
N         3.43700715791544    9.98622858293421    3.31251644829499
H         2.65827907972548    9.88511197459609    3.96363937361440
H         3.18084792843492    9.40186394905776    2.51226029826991
O         5.65900033061205   11.21994578630874    2.86370183487200
O         6.98878396339695    9.56153895543116    3.46436960116922
O         0.02078782532908    5.35125850545271    5.63159624608263
H        -0.56340532306503    5.02491517486137    4.93599242846559
C         5.90120130992786   10.06420588327591    3.37991245328847
C         4.63058366988075    9.34206391019591    3.92021005768349
H         4.60661190611433    9.49907676561215    5.00322294542329
C         4.67733914222934    7.84092807265568    3.62394396106226
H         4.78208224819498    7.68660490828434    2.54715415620196
H         5.57263244305892    7.43862472090073    4.09968184702761
C         3.44073882320522    7.15299856202213    4.13647438103337
C         3.25924763722555    6.95749316300552    5.50303770983192
H         4.03392702369705    7.26121250919893    6.19155196530297
C         2.11714039753792    6.35905303905478    5.98885399441031
H         1.97669866780761    6.19381425501245    7.04438850375150
C         1.12222503623790    5.93084030477489    5.10929248140625
C         1.29543828137656    6.12172790787303    3.74286622311609
H         0.53839067441057    5.78079702991690    3.05015010318095
C         2.44330377808532    6.73187185182166    3.26795240950490
H         2.56951997365164    6.85019212479588    2.19981267005443
N         2.03235935785891   12.59144076725464    2.64054888945863
H         1.84677670736645   13.09347727777000    1.77319226038974
H         1.28484138280928   11.90495088616412    2.74626356717366
N         3.96722826043855   12.55607112516142    4.52436483817272
H         4.44610554414680   12.02295096027257    5.25035673628593
H         4.53536413923529   13.39576532042970    4.37120145222755
C         1.94089984698643   13.57131926147590    3.74442985120225
H         2.48582202718169   14.46605979266617    3.43776131248606
H         0.90444539003798   13.83911681212721    3.96514395782353
C         2.62728816636667   12.96668084117158    4.96247332468554
H         2.07724800664984   12.08910111044704    5.31466352106106
H         2.67041426067203   13.69600684399720    5.77671175640394

