59
CSD_code = BAKJON | q = 0 | S = 0 | Stoichiometry = C22H28N2NiO6 | MND = 6
Ni        3.81698000231691    5.96779832377895   19.07297416230975
O         5.58089797357815    6.27749851594660   20.16941896732148
C         5.70924869153005    7.25677274616329   20.99169363316283
C         6.75436875438808    7.23103376244276   21.94833518818863
H         7.39992863830310    6.36449699093325   21.95984927121577
C         6.93163598506702    8.25182329739490   22.84241971166228
H         7.73111084123850    8.19573409783005   23.56760695750698
C         6.08839049779129    9.36696107445326   22.82970409681724
H         6.23699935416985   10.16528350345331   23.54048879253882
C         5.07779921031728    9.43344106482178   21.90771212252767
H         4.41969862533505   10.29140098139981   21.89041378904919
C         4.85872457176616    8.40336479336041   20.97426715617661
C         3.81836939180787    8.58003082440610   20.01694249408684
H         3.33629749850752    9.55358065008232   20.08549421476677
N         3.42494703031012    7.76819996082117   19.09262450731839
C         2.36006645634037    8.22152444612576   18.19917513545451
C         2.65456824953739    9.62175784272027   17.63902941050253
H         2.47765453220208   10.39664460851574   18.37933617716722
H         2.00457155646074    9.81517288847177   16.78884054006614
H         3.68921960639075    9.68042702891296   17.30741944453293
C         0.98053135215383    8.21812850652249   18.96025456339228
H         0.45018814996490    9.14479012996843   18.72227291915208
H         0.37021891397851    7.37899137621430   18.59133062875520
O         1.08484009110877    8.16232874126932   20.34413820016011
H         1.43706579296326    7.27040374132873   20.56773062204272
C         2.28329922768217    7.25871393088006   16.99428722589098
H         1.39189282783526    7.50170189985770   16.39773726705174
H         3.17517348398023    7.38377807134031   16.37534666529186
O         2.26706358184360    5.89623208800833   17.35751740754039
H         1.52879357248037    5.74593541713021   17.96920977450421
O         2.08663803422742    5.65777780645258   20.22433117887618
C         1.98373326498880    4.67759173814499   21.04901251110469
C         0.96800223847221    4.70169264608630   22.03690290348469
H         0.32318802854252    5.56825781774613   22.06935535659761
C         0.81797069530100    3.67963636376903   22.93448879290425
H         0.04136727167809    3.73493807159444   23.68418170871612
C         1.66050792894568    2.56458409938855   22.89456536305055
H         1.53371952930667    1.76527940496050   23.60847655964648
C         2.64248132218463    2.49947284741514   21.94209377951757
H         3.29962122548209    1.64146226038095   21.90346898552835
C         2.83311406086418    3.53086080683107   21.00380787524018
C         3.84378669611096    3.35491776808975   20.01507697702087
H         4.32811059594550    2.38155920519209   20.06897640966921
N         4.20920296917517    4.16701906113608   19.07955412137644
C         5.24684216518178    3.71427295480008   18.15430803207759
C         4.93801821904178    2.31286940295744   17.60496714480676
H         5.13792852736712    1.53929054910537   18.34077868581738
H         5.56317207933300    2.11932602275534   16.73637275495741
H         3.89419440544778    2.25211225651468   17.30390577192713
C         6.64925667798947    3.72071237869249   18.87227250281225
H         7.17475305537916    2.79609674122995   18.61629230232499
H         7.24538825662643    4.56241330077982   18.48640259414508
O         6.58736881909840    3.77376009203202   20.25881463510899
H         6.24090308609328    4.66481337461890   20.49435285708570
C         5.28493824015278    4.67589945277348   16.94660292355320
H         6.15747795699494    4.43312592388639   16.32271646684684
H         4.37426100936916    4.54914306932127   16.35604769754387
O         5.31104916826697    6.03886219692470   17.30747969928665
H         6.06866001109591    6.19090108186228   17.89452236280900

