103
CSD_code = BAKLEF | q = 1 | S = 0 | Stoichiometry = C56H40ClN2OP2Ru(1+) | MND = 7
Ru       10.55648245831886    9.77162515464185    3.44977980105405
Cl        9.56851499831755   11.41484876892534    2.14859462107036
N        11.22069518415850   11.21531779428785    4.64879677408328
C        10.67915101521675   11.69839994762360    5.75738511366692
C        11.26524411655986   12.71205326055995    6.51074994662925
C        12.45851176595051   13.27047415251359    6.10999022031421
C        13.04884736371718   12.80305901231212    4.92664010281154
C        12.38740666694004   11.76870214419088    4.23357731988829
C        12.92426056517069   11.28274596522003    3.01242844105610
C        14.09263793481712   11.84931799683539    2.46204526455863
C        14.50995826813237   11.36613890861309    1.21249931648296
C        13.75183644283084   10.40093626841807    0.58689447970650
C        12.61809878138989    9.89128694726911    1.22071241791858
N        12.23279360261754   10.29343481082270    2.41489410253699
C        14.25667477288463   13.32456960544953    4.37643671051645
C        14.75273465831977   12.87647019645233    3.19612940307845
P        11.03609587343861    7.02421278513963    2.65091871809800
O        10.10662015428460    8.00711608261727    2.01519132227434
C        10.16648406515504    5.50672248102890    3.11971580996706
C        10.83004249129164    4.42312848586069    3.68233037752869
C        10.13324826474625    3.25796533711974    3.93659774365567
C         8.78583530577136    3.16993795757049    3.62038810645839
C         8.13044011164598    4.24672867202020    3.04673836128989
C         8.82039262679466    5.41807150066673    2.79169331653682
C        12.31297491816114    6.44927326617550    1.49735576562336
C        13.47062502343820    5.79090385682795    1.89568305956331
C        14.35427851398487    5.32395179238168    0.93911072236612
C        14.08057623036970    5.49708179024767   -0.40874557734094
C        12.91417995939952    6.13017832096524   -0.80748413159397
C        12.02853286716107    6.60090151187473    0.14442144988400
C        11.79675613864289    7.94354787010784    4.04386051571562
C        13.18285832011423    8.26103170799028    4.07860566807349
C        13.71335448426740    8.93171715978950    5.13349832490001
C        12.91334017350587    9.27926929543234    6.25819880880165
C        13.45911981015772    9.95993432300865    7.35841698543543
C        12.70023258976451   10.22077832523506    8.47112304926143
C        11.37128846832742    9.79539186804919    8.52561511557788
C        10.80869528007942    9.13899167842637    7.45903504525754
C        11.55272466553770    8.88321661070760    6.29595099867151
C        10.95570381498455    8.23653834470211    5.14730140841881
C         9.75103116253948    7.38897366889065    5.39557055892259
C         9.92493022901886    6.15979849940556    6.09189470748053
C        11.18359986081460    5.70518275793138    6.54017453757771
C        11.30517669207030    4.50857386822552    7.19063396906850
C        10.18000261381816    3.70448688192904    7.42121389834351
C         8.94700736903605    4.11650338312280    7.00014918523630
C         8.78450434340261    5.34698354330864    6.33228297664260
C         7.51445703378346    5.78001290040836    5.89406949968238
C         7.36418858893613    6.97453388035789    5.25402219905807
C         8.48708707514604    7.78893106762123    5.01367535389639
P         8.39725329292523    9.41537390222926    4.20709880562990
C         7.02706030180353    9.26124837534327    3.01885409420050
C         5.70854451129764    9.33066951528529    3.46985044882791
C         4.66360045756012    9.18348917345320    2.57693656806042
C         4.91985472375622    8.97421989195798    1.23127449356808
C         6.22702692817266    8.91850563410522    0.77825652630221
C         7.27892927444187    9.06208534481836    1.66565896631626
C         7.61942827406541   10.49521043532912    5.44450552288589
C         7.25445801650880   10.08295870638611    6.72093525494061
C         6.65868824068017   10.98422663593907    7.58754121955924
C         6.42729697176782   12.28958285018619    7.18677481913271
C         6.79158207126747   12.70294206860471    5.91332633761494
C         7.38780066174934   11.81143800462364    5.04297807303318
H         9.73778041497998   11.26908410669811    6.06992919793727
H        10.76483439121950   13.05072672007150    7.40317553980834
H        12.92847480034992   14.05972327664076    6.67512210511581
H        15.39968955332766   11.76462159006207    0.74968834509292
H        14.02172268475397   10.02691156375815   -0.38761255876489
H        12.01119680052665    9.13548997959862    0.73986361987733
H        14.76009685905479   14.10900460689179    4.92068106016345
H        15.65500038945432   13.29898703232144    2.78098621001026
H        11.87976262100161    4.49427797121631    3.92362015448856
H        10.64157253945078    2.41395558505126    4.37694692625277
H         8.24868383347379    2.25475338436576    3.81670991838901
H         7.08398099916755    4.17375799302258    2.79267567101136
H         8.32767728129901    6.26971520642047    2.34162808416803
H        13.68384666195685    5.64565740128020    2.94522807968269
H        15.25776256903416    4.81904607188439    1.24598094812602
H        14.77439907841064    5.12938554852603   -1.14895957762399
H        12.69328369539176    6.25067260923453   -1.85709503802836
H        11.10588865932484    7.08506687473966   -0.14766908914373
H        13.80566062613574    7.97421127211137    3.24102370767024
H        14.76274877779522    9.18756677910595    5.14951478081988
H        14.49312197272268   10.26923289960720    7.31398355871888
H        13.13100126086978   10.74245069230490    9.31166199738832
H        10.78476897738209    9.98518745913748    9.41118122197007
H         9.77968523187431    8.81623032515279    7.50257897361759
H        12.05887096710561    6.31530612609168    6.37216664216779
H        12.27368802088233    4.17578975288886    7.53255034730453
H        10.29589174076082    2.76237123013355    7.93466513844822
H         8.07319465172173    3.50665593131736    7.17490583945726
H         6.65982373457311    5.14697786037315    6.08120788851617
H         6.39277860953391    7.30617259427415    4.91864513362397
H         5.49745493487547    9.51904689736774    4.51360084466809
H         3.64545444341613    9.24089166770129    2.93216857330156
H         4.10052022027922    8.86606484380518    0.53686800324966
H         6.42892270943954    8.77040888764085   -0.27198963873030
H         8.29701759437114    9.03846492758697    1.30589309933444
H         7.41804620227895    9.06001151078679    7.03117182125962
H         6.36786193517009   10.66208462885436    8.57629138883306
H         5.95740354328271   12.98475905539975    7.86561331185263
H         6.60635690789220   13.71906835630065    5.60039177748602
H         7.68721566453374   12.11640583273064    4.04815297669330

