43
CSD_code = BAKNEI | q = -1 | S = 0 | Stoichiometry = C16H14CoN4O8(1-) | MND = 6
C         3.00542447243884   26.14855323277647    3.76507829395751
H         3.22427271950475   25.99320334790009    4.81209090172101
C         2.10132289127101   27.11303082842485    3.34867314664096
H         1.59457802801979   27.71976353348034    4.08408801624482
C         1.88573833038456   27.28116070155635    1.99328543205386
H         1.20471240218881   28.03773095828067    1.63130065531295
C         2.55536573958611   26.47625024196275    1.07111299760388
C         3.42941555894812   25.51928144161494    1.57237518049241
C         2.51592360203103   26.92723123396904   -0.46669630696042
C         4.25669969278542   24.55954629725443    0.74128810493615
C         4.28985352155602   21.26858367780241    2.85306282620477
H         4.61425389613765   21.28944608567980    1.80933837358426
H         3.68384738526398   20.36955019747523    3.02357262564234
N         3.64159123190376   25.37656465350693    2.89192885592596
N         3.54072185356241   22.49826648880367    3.11375877647225
H         3.08791874572326   22.44541340906087    4.02603791585187
H         2.82407171827517   22.63460966239964    2.40386657741993
O         5.14606334897507   23.94697981050572    1.45727185101753
O         4.08603031570957   24.36333209831938   -0.44029969921390
O         3.49404105418862   27.64407172819927   -0.65082831264036
O         1.54595808606141   26.59903920888637   -1.11914646710824
Co        4.90233521405906   24.03957427907739    3.30874966917285
C         6.79907741888501   26.14874085499661    2.85246542789624
H         6.58019948056188   25.99344675638252    1.80545337043060
C         7.70320364464136   27.11318832930739    3.26888421915074
H         8.20991666196415   27.71997224769150    2.53348559551688
C         7.91888928089022   27.28120863647365    4.62426640749926
H         8.59994912877543   28.03775046410047    4.98625119322273
C         7.24930119331379   26.47625105749862    5.54642535160057
C         6.37522533756047   25.51931617923899    5.04515810814327
C         7.28870587004494   26.92742439873813    7.08417500594374
C         5.54774780267260   24.55978278901675    5.87628296235204
C         5.51461560681226   21.26858690814540    3.76458742045908
H         5.19020613090440   21.28958616211899    4.80830681953615
H         6.12052483789126   20.36947543479655    3.59417394779622
N         6.16300755427855   25.37665578771362    3.72559542766688
N         6.26388465199769   22.49816756908068    3.50378337365509
H         6.71658821069725   22.44524445488408    2.59146003360023
H         6.98061439278448   22.63445450576907    4.21360570342008
O         4.65870658107795   23.94683294278918    5.16022457655452
O         5.71892388879238   24.36301150676529    7.05770124450601
O         6.31033020922338   27.64391647700024    7.26830657459674
O         8.25854230765438   26.59920342055666    7.73679782211979

