64
CSD_code = BAKPOT | q = 0 | S = 0 | Stoichiometry = C19H37ClN3OScSi2 | MND = 5
Sc       16.78059328297401    3.06276345254267    8.29126862473164
Cl       15.27385766986556    4.75179595681717    7.83131366023691
N        16.51990505586005    1.76076163594827    9.80405309512195
N        18.63553240277671    2.62421042249999    7.62632109589701
N        17.90809904686576    4.23535935963506    9.80968028000364
O        15.74349958071175    1.75605453838468    6.88434105036379
Si       15.21046817309915    2.01263120318687   10.87972128326679
Si       19.28665692063689    2.98780378459563    6.09037207695424
C        17.76601882120498    1.21911387817691   10.27112582066292
C        19.04817810929768    2.11267673332927   10.10417667875486
C        19.54519878306907    2.11819808633307    8.62569145004954
C        20.15715424817670    1.44236641470733   10.92671692522065
C        18.77100510716419    3.52065983695722   10.55541055242492
C        19.36130884219103    4.08704673586787   11.68790658364464
C        19.07724636446029    5.39237711155770   12.03913803688680
C        18.20581095524808    6.12583161630829   11.24611675573807
C        17.64805676953333    5.50169836849600   10.14781210984678
C        15.11050477622673    0.65887895744523   12.23131709964779
C        15.20092175875784    3.70660214180865   11.80277678808446
C        13.63727524289754    1.94407199905651    9.79477138424762
C        20.69454553657371    4.29481032382830    6.11844552962335
C        17.82367694590222    3.67202563731807    5.06498411530001
C        20.03039529456295    1.45614558625034    5.18742190299830
C        16.20518439117521    0.43501907223928    6.61302449397078
C        15.94492326627015    0.20822624867177    5.11632465919255
C        14.82985913492923    1.21518182032488    4.78409715443758
C        14.53592224017543    1.88220880436072    6.13351807388957
H        17.70680133604181    0.96216673010604   11.33745155031144
H        17.98586708742843    0.28679742578562    9.72354178124063
H        20.48603324536285    2.69457493715258    8.61988169140532
H        19.81381900254317    1.07365789565046    8.39122044858237
H        21.09223321093544    1.99259921952964   10.84430984195556
H        19.87947704065565    1.35852562733086   11.97475345934688
H        20.32430616589467    0.43640294197853   10.54840875379734
H        20.04242697404380    3.51546296500252   12.29514021378275
H        19.53062247968553    5.83284579992504   12.91513062133798
H        17.96286525930860    7.15053175903638   11.47707417005672
H        16.95765634625398    6.03531639479706    9.50160050679146
H        14.14323104902536    0.66642082084401   12.72111957701588
H        15.86430990624256    0.80983610154948   12.99739981857641
H        15.26132166667041   -0.32921277679054   11.80962211405478
H        14.36585411968330    3.78573154623443   12.49194888182867
H        16.11321690072938    3.86497164141505   12.37456192250307
H        15.11184584907666    4.52110689248308   11.08622587783575
H        12.75351420498380    2.16343749808005   10.38323161592009
H        13.69527887700361    2.68708915687599    9.00252471820264
H        13.49668577831433    0.96814939265224    9.34012207375027
H        21.02400346445094    4.55010601856320    5.11634606796257
H        21.56132217530315    3.92646991975402    6.65932300571559
H        20.36945460939774    5.21105429388890    6.60405467852131
H        18.13152006954643    4.54133929711955    4.49475691030115
H        16.99742359893030    3.98027098537356    5.71261618901904
H        17.45137860179090    2.94036529849196    4.35604559624150
H        20.27108582581566    1.68191386610677    4.15338474719609
H        20.94856112990438    1.13730603075108    5.67144355353622
H        19.35169928821986    0.60710243177961    5.19009652775384
H        17.26276825456646    0.39682171813706    6.88592164920330
H        15.63297096417563   -0.27831317922437    7.22393889483591
H        16.84161563126248    0.42231718588420    4.53778226582456
H        15.64480373431235   -0.81884104169503    4.91879464925059
H        15.17851205327934    1.95391726330289    4.06442900182401
H        13.94255714252952    0.73377463578379    4.37906178867954
H        14.29038674955554    2.94359278514438    6.05664460510775
H        13.72637148665746    1.35507079428068    6.65844294969326

