69
CSD_code = BAKPUZ | q = 0 | S = 0 | Stoichiometry = C17H43ClN3OScSi3 | MND = 5
Sc        5.87361449810875    3.02719554309809    2.75231649646827
Cl        6.19328832297726    2.92926229306568    0.48187548535956
O         4.52902720347189    4.77205602249285    2.59449165240421
N         4.35902695845147    1.94286934680265    3.61384576419386
N         7.22303159665281    4.09286367307544    3.88060414250756
N         7.12681594959609    1.21212194967154    3.88200689362478
Si        2.79177234478705    1.49098452597426    3.10483375963000
Si        8.15096752334550    5.47866741691672    3.50198735595556
Si        7.85185877989045    0.23381152856167    2.57898364871965
C         4.82626707397833    1.39799362834329    4.87649255340863
C         6.08434935742790    0.53365494043312    4.65857015084917
C         8.07896136568825    1.94023778362153    4.72414881221192
C         7.60893730011046    3.36433355608424    5.07703912976306
C         2.56564265616160    2.07760157009226    1.30152407131020
C         1.39282190018421    2.25719857454027    4.18830139022823
C         2.47790137979872   -0.40512123189043    3.16064998111955
C         8.09569998800705    6.80609292985464    4.89534596365462
C         7.42786192760662    6.25257760990327    1.91492149013570
C        10.02147801926414    5.12719693241178    3.21556013964627
C         9.06004807419912    1.38442277322787    1.65429335178236
C         6.38733284424796   -0.36601638947670    1.51278590487511
C         8.79886492104157   -1.25415196816282    3.32646157935242
C         4.07132504609053    5.38097956310120    3.81726053499572
C         3.08255469006204    6.48068852591774    3.42462653952254
C         2.61749768849248    6.01789157718929    2.04653303861578
C         3.91076109511846    5.44323145146885    1.48708655744070
H         5.05305153627369    2.20920371067617    5.58811495522430
H         4.07394950341174    0.75880888787598    5.35896530214848
H         6.48598541175860    0.21052994428512    5.62932365472418
H         5.76062200789156   -0.35595369144210    4.11319839772965
H         8.27884722104634    1.37631889540101    5.64734655699595
H         9.01980223599466    2.04429350998943    4.17941475379372
H         8.43341727235930    3.85332284684392    5.61392953279335
H         6.76384824427543    3.30846989243492    5.78237871904546
H         2.11329607754683    1.29746082594695    0.69987455564569
H         1.91713322217497    2.94463894101811    1.23823737005827
H         3.52128848723018    2.32895656020297    0.84502564742408
H         0.41303449408041    1.91915531264337    3.86570374315730
H         1.51009951119161    1.96771948086494    5.22892625421876
H         1.39078155085629    3.34361146067238    4.15281133612226
H         1.44830413676233   -0.64211321900062    2.91202296389454
H         2.67131439600708   -0.80603159400879    4.15161483543101
H         3.11526983597627   -0.93919244566102    2.46171661801362
H         8.65044421217731    7.69575540933877    4.61522877582208
H         8.53696520001573    6.42319408724449    5.81064351038164
H         7.08022285783784    7.11378354653021    5.13084836026543
H         8.19739928433906    6.79120569072674    1.37392240024041
H         7.03180286057066    5.48883845277821    1.24838219341595
H         6.63705040003109    6.96113118392060    2.13945516023474
H        10.58921272575046    6.04765351266861    3.12080093193322
H        10.44505819487322    4.56927018494448    4.04661992898097
H        10.18664366476790    4.54642350121044    2.31228535267007
H         9.08574293861981    1.13881064179175    0.59777165103293
H        10.07671266398793    1.30824698268861    2.02960808389835
H         8.74006775217811    2.42514001359819    1.73565033633080
H         6.62855614295490   -0.29996238842387    0.45686034584893
H         6.11881146207924   -1.39795475463075    1.72055645428098
H         5.50674831372343    0.25965275134639    1.68315470586294
H         9.24670776249305   -1.86086650524470    2.54698770694979
H         9.59846330349143   -0.92772676525446    3.98487005181205
H         8.14217096007510   -1.89804848263622    3.90384963406239
H         4.94194765454989    5.76503801504224    4.36154986053933
H         3.58580297471968    4.59527503532878    4.41057237134600
H         3.58984365903694    7.44296670126222    3.34577074848364
H         2.26884035430702    6.57296503214048    4.14012643339159
H         2.21869379052489    6.82404296175364    1.43578470314407
H         1.86768326201168    5.23198859661978    2.14241608278813
H         4.57106356390729    6.24659245639543    1.13276870366421
H         3.76729039131034    4.71554069378267    0.68576392819984

