47
CSD_code = BAKSIR | q = 0 | S = 0 | Stoichiometry = C22H20N2O2Pd | MND = 4
Pd       -0.90977615988040   -0.44540889421387    4.79268134327786
O        -1.15912507476125    0.05081347726570    6.73965592635309
N        -0.50479898655295    1.47475289735731    4.60185311862855
C        -0.18355486647091    2.13798977665668    3.50875693090036
H        -0.13158754227060    1.56673925778212    2.58862018780636
C         0.07887189611145    3.51477282166011    3.53276579347838
H         0.33785260393368    4.01732005521687    2.61388094960185
C         0.00458765047999    4.20351747958171    4.71599774433991
H         0.20575649487271    5.26353796824475    4.74152414720366
C        -0.33599200180915    3.52604147941974    5.90595339286368
C        -0.44216811821104    4.12239263818133    7.17966838335072
C        -0.78506807792376    3.32345282678153    8.25203584898058
H        -0.86535894199001    3.78093839170086    9.22925063750005
C        -1.03597745839641    1.95541442929814    8.15909480616917
C        -0.94174341077523    1.32531830545562    6.91201659088561
C        -0.58708232131982    2.12953798399966    5.78896960523423
C        -0.18559130711697    5.58965312837273    7.36216832899452
H        -0.31442333618532    5.86767065632586    8.40475851970559
H        -0.87597261180457    6.18229972119955    6.76211614276431
H         0.83056685373497    5.84604273856651    7.06261485863235
C        -1.41004451376959    1.13880382033246    9.35752136548004
H        -2.45037255596501    0.82182623441257    9.28246581014065
H        -1.27810512254409    1.70386495157357   10.27636293045101
H        -0.79877139200430    0.23841935428957    9.39295440800204
O        -0.65958246932830   -0.94175032016607    2.84587747616955
N        -1.31401761100235   -2.36568792160444    4.98364657181899
C        -1.63544986298177   -3.02889557062615    6.07670487737649
H        -1.68746045340788   -2.45764524049053    6.99684040075120
C        -1.89809248200045   -4.40563659554183    6.05264824608382
H        -2.15727610577606   -4.90814810632817    6.97149566226965
C        -1.82376523259351   -5.09438111995574    4.86941886483952
H        -2.02507562940172   -6.15437399528491    4.84385756611143
C        -1.48296955482566   -4.41693772321437    3.67950609877470
C        -1.37669978154176   -5.01329656003462    2.40580329087082
C        -1.03356868360651   -4.21439290078357    1.33348259856498
H        -0.95317235810215   -4.67189128225314    0.35628264389349
C        -0.78256874285473   -2.84637287368208    1.42644919190323
C        -0.87695556944028   -2.21625583939364    2.67350560564164
C        -1.23175023665999   -3.02046035521156    3.79652284092802
C        -1.63341666278595   -6.48052839367096    2.22326661950677
H        -1.50448571504185   -6.75855701273408    1.18069172932043
H        -0.94318190965969   -7.07325850027436    2.82340426498219
H        -2.64964312965696   -6.73679978479225    2.52269014960512
C        -0.40824982940200   -2.02980272142862    0.22807337376753
H         0.63207939352833   -1.71287068362684    0.30331523706957
H        -0.54004435253928   -2.59487707155995   -0.69078046797328
H        -1.01947472030027   -1.12939092680252    0.19250938697968

