83
CSD_code = BAKYAQ | q = 0 | S = 0 | Stoichiometry = C36H40Cl2N4Ni | MND = 6
Ni       -1.73093646911563   14.49600820852113   12.26952551852187
Cl       -1.08469613633081   12.67999364891291   11.30043774712880
N         0.01001262917076   15.00168219619999   12.51760132955728
N        -1.33663634879173   15.80524056169687   10.15378574001240
C        -2.12865534609898   16.10608777942895    9.04318330447290
C         0.54237881397591   15.77645276563750   11.57480037919109
C         2.63693529777484   15.97925442450204   12.69909044315902
C         0.78815014854341   17.12052204966013    9.58567911019670
C         1.83549107665681   16.28850805693406   11.61616881365054
C        -0.15247170454795   16.20200927040755   10.36639139340420
C         0.78265302644329   14.70196414621353   13.55733283805869
C        -3.00589816764690   17.19975514288908    9.06856581744123
C         2.08420745161679   15.16648580491273   13.68007737349493
C        -2.15511922799700   15.20417512621271    7.96538785761111
C        -3.12436930067194   18.09736708745838   10.26507362506867
C         0.20092433694849   18.53321155289616    9.52633231888810
C         2.10799820293990   17.11698229110867   10.40487334607753
C         1.03499978285169   16.60827479580461    8.16638130685411
C        -2.98611576287101   15.47106435723778    6.88893480986835
C        -3.82104065686565   17.42896709527357    7.96798833400348
C        -1.32382183095402   13.95875609105020    7.98549320705471
C        -3.80188921044069   16.58821995623416    6.87233966644259
H         2.92886354348923   16.68509439543546    9.82806440469038
H         2.40505216361017   18.12860893251358   10.68798742843143
H        -2.99506626672004   14.78418524326769    6.05478459651588
H        -4.43665362367964   16.78641472625581    6.02156685847473
H        -4.48507538010673   18.28146792662903    7.98521630847155
H         0.35578070092234   14.07157427852601   14.32453830817922
H         2.65697307376046   14.88778017344168   14.55048329331055
H         3.64693783168719   16.35193099833204   12.78158476397571
H        -4.17632173754770   18.25295404429981   10.50061570209849
H        -2.64262414515391   17.66599059999051   11.13772578994717
H        -2.68569996659955   19.07572457173571   10.07014851409176
H        -0.68973011394041   18.54407459760472    8.90474155231684
H        -0.06161575088052   18.88080185686479   10.52326867203388
H         0.92749183022546   19.21884693495115    9.09398049684914
H         1.43639314022910   15.59711805480291    8.18967806772494
H         0.11179461010663   16.60839098578063    7.59243526484565
H         1.75105528794097   17.25469671145578    7.66196327329030
H        -0.29874479684034   14.15979952822701    7.67691960008982
H        -1.28976858196750   13.53404168807460    8.98710249768887
H        -1.73880207499180   13.21948470830938    7.30434665260192
Cl       -2.37701798537568   16.31154558778783   13.23962659439094
N        -3.47186951269752   13.99027534129592   12.02144251201589
N        -2.12524478404891   13.18673637069610   14.38521850531576
C        -1.33318456180749   12.88592757439530   15.49579970636175
C        -4.00425252546537   13.21550430780653   12.96422556257836
C        -6.09880629533277   13.01276175343223   11.83993193791240
C        -4.25002344061684   11.87141323622730   14.95332852342469
C        -5.29737224078368   12.70347704506422   12.92285267741167
C        -3.30940589183189   12.78994532146497   14.17263062638100
C        -4.24449614106331   14.29003167177008   10.98171467817416
C        -0.45590687069485   11.79229434637455   15.47040586813902
C        -5.54605986275361   13.82553744309375   10.85895905039202
C        -1.30670190813193   13.78786484498836   16.57356908262411
C        -0.33738255120599   10.89476696849950   14.27383804778245
C        -3.66281754119197   10.45871167034000   15.01263100103976
C        -5.56987813737059   11.87498593592753   14.13413788811615
C        -4.49686133440064   12.38363254887487   16.37264048004568
C        -0.47570019096375   13.52099461448261   17.65002662936422
C         0.35924346718947   11.56309343714590   16.57098329050315
C        -2.13797975545325   15.03329882514903   16.55338509927627
C         0.34007812865113   12.40384023625598   17.66663411297609
H        -6.39072926681431   12.30688649464666   14.71095766585745
H        -5.86696048936654   10.86337049814798   13.85101443411834
H        -0.46674423752850   14.20788648138218   18.48416461111655
H         0.97485419560533   12.20566109003347   18.51740309670129
H         1.02330842455383   10.71061471407942   16.55374713186752
H        -3.81761450181131   14.92045998456365   10.21454344558470
H        -6.11881235198993   14.10426527762828    9.98855199683648
H        -7.10880920324107   12.64009246313356   11.75741513237742
H         0.71458340738541   10.73927971167003   14.03829636882864
H        -0.81916024289350   11.32616332673633   13.40119433512996
H        -0.77595654643065    9.91635922042750   14.46873053153524
H        -2.77213351410079   10.44781083210205   15.63417915269337
H        -3.40033148172469   10.11112703410756   14.01567829033555
H        -4.38937978817903    9.77308256730604   15.44500295439069
H        -4.89822657489836   13.39480096426925   16.34936443076501
H        -3.57366346629428   12.38347881177468   16.94659945429839
H        -5.21294218517216   11.73722095582194   16.87703642568809
H        -3.16302708536184   14.83230062107006   16.86210282061080
H        -2.17213327948130   15.45791049201239   15.55171331904532
H        -1.72292222501657   15.77262601232457   17.23442620219243

