55
CSD_code = BAKZEU | q = 0 | S = 0 | Stoichiometry = C26H23IrN2OS2 | MND = 6
O         9.48885496800761   -3.69347756603751    5.89960753335680
Ir        9.37870233384271    0.56595536078976    5.38831570366979
S        10.43870628457778   -1.45128704302604    6.64106107814575
S         8.37996462671421   -1.69122494923897    4.55442468286718
N        10.56051445023803    0.45840771253489    3.77987691233128
C         9.41860140576747   -2.38767092258872    5.68568483322510
C        10.32214943206404    2.08846800250046    6.31444216849813
N         8.20212280055975    0.73906504228783    6.99384662096999
C         6.64161240208587    3.34357236950579    3.45357350346104
H         5.75407791979213    3.91581939438036    3.68347881149036
C         8.39976574379809    1.85314654356328    4.18027515648474
C        12.03638084765180    3.74052527168324    6.72303289022354
H        12.90119010810225    4.28817200559161    6.37633186818237
C         8.29209891886301    2.63362389442845    1.87184228392265
H         8.68736125512510    2.65011681205611    0.86689386007165
C         6.39270024604370    0.05493788120732    8.39071631332201
H         5.51014007336421   -0.55286161057302    8.50984132720700
C        10.42973967176982    3.28203725431236    8.43733239626696
H        10.04612518622486    3.47046636657171    9.42910418026762
C         6.84437485994849    0.88028714658863    9.41137540785465
H         6.32317024712097    0.92544031995661   10.35564748524668
C        11.43549405779299    2.80703487392522    5.89473993831915
H        11.84538547972296    2.64499447959295    4.90734157934041
C         7.15678101621662    3.35990480943371    2.16623934759033
H         6.67097671542347    3.94018716124749    1.39561792274524
C         9.81741434762427    2.34377942810158    7.60715365581625
C        11.53668426938432    3.97627201622911    7.99483243694468
H        12.01230135243727    4.70231195785751    8.63770818999951
C        11.95818867004546    0.20316924633037    1.39445006537515
H        12.49648649194600    0.09561783599845    0.46487241108652
C        10.12305160602462    1.09388427985181    2.66487321699626
C         7.97103836255294    1.64753749260865    9.19117099851929
H         8.34059770115264    2.30286360290928    9.96277215629430
C         8.69544784268894   -4.59536564164244    5.12471995071256
H         7.72836730629913   -4.11599465939402    4.91586450216830
C         8.91781030256363    1.88401219407040    2.86734561181618
C         7.10146159101265    0.02076983903607    7.20619317145249
H         6.77138876776969   -0.60981395584699    6.39111943193448
C         7.25652172275363    2.59875353605903    4.44633246891526
H         6.83425823006769    2.60648804387674    5.44185240585675
C        10.81122429259680    0.96947468511957    1.45932430526119
H        10.44286221341954    1.47066733701444    0.57920362406728
C         8.63846944327574    1.57206261591605    7.96999004597333
C         8.49206902503987   -5.84078537404725    5.97558304845236
H         9.45386543364012   -6.29481843611219    6.19970377502969
H         7.87380790744287   -6.55519560502159    5.43990798746179
H         8.00510743182715   -5.58023293767842    6.91199387106481
C        12.40675879477031   -0.42052762334501    2.55062690505589
H        13.30293535187894   -1.01990643716508    2.55316540873189
C        11.67864421426329   -0.26157873669269    3.71337051025885
H        12.00485527018060   -0.73196799718896    4.63163863751336
C         9.40348333534241   -4.90785647337803    3.80990891203449
H         9.53327986087342   -3.99879752716819    3.22623257855203
H         8.81147941636234   -5.61096372359029    3.23132521602190
H        10.38114839395158   -5.34059959343129    4.01012069562963

