115
CSD_code = BALDID | q = 1 | S = 0 | Stoichiometry = C60H44CoN6S4(1+) | MND = 6
Co        0.76540331611429   10.31595044929758   11.06967404398709
S         1.04093741808074    9.45466017049136   13.22816535691926
S         0.97537177390206   11.30994635004425    8.96149886441486
N         3.39237939476129    9.66462472009907   14.53506905726571
H         4.35410983467663    9.99993980330650   14.47217007472233
N         2.51572896718844   10.78164900066697   11.24578665194870
N         3.32308673161435   12.34077577850736    8.12244307622195
H         4.29746132010736   12.50919470267503    8.37455439425223
C         1.89044420951409    8.49662028644986   16.10785177011856
H         1.07926303109225    8.47227967798806   15.40055611931581
C         1.72281663041975    7.94028086276178   17.36362396502139
H         0.77543946641435    7.49017649049919   17.61707139053316
C         2.75196848885826    7.95553866734591   18.28878057595466
H         2.61114562793805    7.51947319370114   19.26516596387739
C         3.96662598553535    8.53388297967700   17.95312690203714
H         4.77582963736088    8.54997597902610   18.66660209121578
C         4.14589654051616    9.09158925669987   16.70407768210503
H         5.09349807288714    9.54238328929613   16.44221540162464
C         3.10724576676425    9.07964533732883   15.76893590574277
C         2.67902201037631    9.86726179663804   13.42530311054112
C         3.29841965126353   10.50489347362162   12.31186570609171
C         4.60467015274335   11.01210872558591   12.07253084650543
C         4.56551824854733   11.63087001669135   10.82434413242454
C         3.24542274321345   11.45293576906231   10.32774384681375
C         2.60991034120159   11.76148267092157    9.09054903263920
C         3.01884600811588   12.77713958915223    6.83295629778208
C         4.08604774722428   13.30289751184810    6.09940600576530
H         5.07065196219399   13.34242054887479    6.54519397212165
C         3.88825940000200   13.76823678590020    4.81583427059018
H         4.72026967273682   14.17102419595242    4.25940264258886
C         2.62558259522623   13.71883131923538    4.24499880334258
H         2.47020989781887   14.08261567332583    3.24158723336145
C         1.56659488149704   13.20178243193720    4.97062519101709
H         0.58073227361948   13.16263154122647    4.53378315466666
C         1.75263360667568   12.73125362495350    6.25849913428549
H         0.91587778624184   12.33626763829131    6.80871954838629
C         5.78070082699787   10.92235226383689   12.93964056251473
C         6.23885073187604    9.68207529651976   13.38937150395247
H         5.72955635739899    8.77908614808601   13.07938562604125
C         7.36334573810888    9.60193650378400   14.19173329397614
H         7.71178637046026    8.63713010335843   14.52867301408657
C         8.04270272299143   10.75364055065325   14.55312974873786
H         8.91924348419155   10.68946916180295   15.17906573485685
C         7.60094878752559   11.98645186278674   14.10010408550341
H         8.13391535110432   12.88446109671618   14.37267632490465
C         6.47978721949201   12.07311444191162   13.29605273459717
H         6.13428570302170   13.03351691095620   12.94384995423371
C         5.68734684184621   12.31616969556446   10.18020083272922
C         6.90517320625869   11.66170352823448   10.01089966371292
H         7.00761410292609   10.63899357264870   10.34158219112425
C         7.96999713405832   12.31338122482308    9.41723793925246
H         8.90847844454771   11.79626180018722    9.28835885493557
C         7.83703753001822   13.62521124299136    8.99104592055986
H         8.67065642452245   14.13132630652179    8.52934954510299
C         6.63489497383588   14.28985576861962    9.16887567763469
H         6.52995291871530   15.31698184459689    8.85299941800563
C         5.56443444046942   13.64242939619943    9.76025677749784
H         4.63722933168592   14.17377724490159    9.93001477136903
S         1.16400847920789    8.20398843084194   10.14302224075686
S        -0.12031157686858   12.29674921361209   11.94888516261512
N        -0.86649779937356    6.55540637426894    9.47931856919671
H        -1.88142470710389    6.45334205461307    9.44882086506280
N        -0.98361042995122    9.84777489513037   10.88802370627512
N        -2.78447655244676   12.69442361791508   12.10836847107497
H        -3.70092374477567   12.28319959768451   11.92810868240073
C         1.18320447190708    5.30435606070503    8.90663326985572
H         1.82624337363182    6.11700608598038    9.19797260150015
C         1.73549170188877    4.13209768814602    8.42156980846588
H         2.80847923779342    4.04899786013487    8.34397492019422
C         0.92948217051817    3.07452551225894    8.03759274763624
H         1.36976505248731    2.16490040158555    7.66069654130616
C        -0.44838881792728    3.19085447809120    8.13944042795847
H        -1.08584869069544    2.37273980220317    7.84193670518426
C        -1.01080207629235    4.35466749509966    8.62170268206143
H        -2.08565722729951    4.44535370294214    8.70095836851540
C        -0.19895169832106    5.42354197916285    9.01129143302040
C        -0.45952862066376    7.73924060568231    9.94229230774359
C        -1.43509187012813    8.69975949304102   10.33665048732252
C        -2.85651545255874    8.70454479411039   10.35378383501665
C        -3.24016405794377    9.89607132637641   10.96624743634416
C        -2.04113326078394   10.59571487607032   11.27262247251973
C        -1.76496696006821   11.88996913324502   11.80039716877118
C        -2.86885635638957   13.98359756254520   12.63434528712386
C        -4.15963847758609   14.50031016974633   12.77692437642264
H        -5.00930082693401   13.90097484316540   12.47925098134238
C        -4.35174351052611   15.76542463818252   13.29249702288256
H        -5.35306503573957   16.15346004447505   13.39691813817207
C        -3.26238983093041   16.53344589070898   13.67455670609634
H        -3.41191328089533   17.52268646034148   14.07751279745517
C        -1.98342816786623   16.02285064583299   13.53694993477751
H        -1.13117209474192   16.61413977483335   13.83424695892564
C        -1.77794915169190   14.75552292385175   13.02092408204540
H        -0.77589002178910   14.37401356163591   12.92453056738372
C        -3.76760232720699    7.68021617203077    9.84009604490921
C        -3.68947951682222    7.26387510523037    8.50927031436458
H        -2.96170633600881    7.71680846413766    7.84889361336957
C        -4.56471510074514    6.30835298304194    8.02388680309741
H        -4.49867303809668    5.99820394879553    6.99177635381438
C        -5.52558072675941    5.75918325944675    8.85679651145500
H        -6.20667685425636    5.01344970565844    8.47706851505576
C        -5.61733657164510    6.17748538182352   10.17466249378551
H        -6.37129113137428    5.75796311310435   10.82297661066825
C        -4.74785149957815    7.13387900538245   10.66496300983909
H        -4.81781563478937    7.45928577888526   11.69209128244412
C        -4.61974067874979   10.31335439443490   11.22265340163199
C        -5.54661812523766   10.34837806437061   10.18360461379318
H        -5.23324686287643   10.08367422135576    9.18485165675359
C        -6.85350383723388   10.72695900412392   10.42795695919826
H        -7.56315552443194   10.75345158307535    9.61528483018205
C        -7.25423963750571   11.06882221922779   11.70966400352898
H        -8.27541813475889   11.36261103258505   11.89705625614261
C        -6.34399900066213   11.02200455268181   12.75262013659994
H        -6.65419856921161   11.27197412124564   13.75616422981244
C        -5.03371166884664   10.64626573205613   12.51425968551130
H        -4.33273324687726   10.57638388828021   13.33561851907094

