38
CSD_code = BALERH | q = 0 | S = 0 | Stoichiometry = C13H21O3Rh | MND = 6
Rh        2.38852190086538    1.04612220797458    0.78513422056810
C         0.25289184188280    2.94503617209488   -0.46351909571869
C         1.72630563512637    2.60229429298627   -0.52662120297666
C         2.62716744770912    3.13528239154038    0.38544599960137
C         4.07390167163745    3.40728628432430    0.07419504319955
C        -0.60618498371766    1.74433705930893    1.38931238746022
C         0.58786394609350    0.98198853090648    1.92740920371155
C         1.58462980288448    1.59061921924316    2.67934830938214
C        -1.59377929875297    1.99388877164871    2.53318697627676
C         5.05625228876006   -0.69597348268140   -2.19781974668472
C         4.22777242880421   -0.56028247716907   -0.93606792360663
C         4.24521536238778   -1.63694153425944   -0.04827150575470
C         3.53362031620868   -1.67875553863365    1.15198090901558
C         3.65854381776168   -2.93966753541193    1.98257985295095
O        -0.28870174551504    3.00685003735596    0.83325131471005
O         3.59220439859421    0.51990323355320   -0.79700362973482
O         2.78831816432832   -0.77421371517507    1.61721503898397
H        -0.32612460323145    2.23824196324503   -1.07964676131665
H         0.11256814562398    3.95142411016890   -0.88018788467936
H         2.06923503677953    2.36072255854673   -1.53116748353378
H         2.21861477101057    3.76204989028905    1.17537613797639
H         4.71235092192690    3.12873400076771    0.91514035600388
H         4.20855197329368    4.47584435761758   -0.10212928632450
H         4.39331566764336    2.86159504124590   -0.81024224776194
H        -1.10342285868912    1.13234447960529    0.61477888159130
H         0.37192776292594   -0.07299688643943    2.09584684204658
H         2.11618058739905    1.01403558181691    3.42909952057866
H         1.52072086867632    2.65432206528400    2.87224676500554
H        -1.88740669130000    1.05248247889320    2.98816172289672
H        -1.12320283525127    2.62296683076421    3.28275556218924
H        -2.47574282216873    2.50202341246798    2.15309430012024
H         4.92238103966167    0.18307136689059   -2.82318769124787
H         4.75426580062762   -1.58256073656952   -2.75053584784641
H         6.10842836061982   -0.79616327582417   -1.93952947402835
H         4.84113732743983   -2.49717359904272   -0.31068515313595
H         4.70405521073692   -3.13385684181411    2.21239717658213
H         3.09835842090823   -2.82722646977025    2.90763199499405
H         3.26736492030693   -3.78945424575219    1.42622641850845

