53
CSD_code = BALFAY | q = 1 | S = 0 | Stoichiometry = C20H24FeN5O3(1+) | MND = 5
C        11.75123748168299    7.72965731408704   13.89900585955620
C        12.33433466719318    7.39032562262798   15.21406266903269
C        12.25381193138483    7.03953896324120   12.67571667457878
H        11.78852487682158    7.46418113152007   11.78899667881070
H        12.02391940826934    5.97522358558883   12.71725438547348
H        13.33389942439230    7.14450396443569   12.59269732109057
C        13.58420180890734    6.57998445800707   15.25589942483175
H        13.88886571102001    6.38894558230388   16.28217953285915
H        14.38767215994489    7.10503857447504   14.74056348804550
H        13.43572977035603    5.62938830452066   14.74619311098228
C        10.13304855467436    9.05418672137572   12.79142390585915
C         9.15030487743140    8.23025140068989   12.22203380222774
C         8.38516078037397    8.73757928449634   11.18172462317440
H         7.62230689082952    8.11123639814033   10.74516621522335
C         8.58757380754372   10.01811009092633   10.70109092660405
H         7.98532993751327   10.39119048789438    9.88823813817635
C         9.56558624371575   10.81793012621424   11.26478363181236
H         9.73559228132489   11.81454648613832   10.88748847081615
C        10.34194221116757   10.35636824873126   12.31574621908674
C         8.88693917437252    6.83823703593029   12.71787807250904
H         7.81492090098342    6.66191041627188   12.77667945546576
H         9.32423699803815    6.65952476447242   13.69951253129703
H         9.29947016281905    6.10843786083238   12.02111559657129
C        11.43765237717318   11.21287347663563   12.87602974018986
H        12.27555741486417   11.24439733541297   12.17952431931059
H        11.80228105702259   10.82203673490750   13.82519973331335
H        11.08880690595040   12.23385178445015   13.01480923021698
C        12.18768901945785    7.53322293476356   17.55791387890574
C        13.07715873509046    8.42047716894764   18.17375213554497
C        13.48000663032876    8.15262574893268   19.47355601678503
H        14.16804946677857    8.82678228547476   19.95961091357608
C        13.00840766706944    7.03995080374789   20.14743904613120
H        13.33227254876390    6.84508711050915   21.15716986067728
C        12.11170829101960    6.18369905063291   19.53265880232577
H        11.73517542391463    5.32365108623449   20.06428047508110
C        11.68266493425054    6.41746055953642   18.23512029333909
C        13.56471012137577    9.62989887876123   17.43571801047364
H        12.73410723879762   10.13330782164153   16.93030648137218
H        14.29740033063147    9.35191172350505   16.67755686400180
H        14.03728296766874   10.32741805647197   18.12136766621407
C        10.70562361597053    5.50743902997396   17.55506469613087
H        10.24286389169197    4.84007112008461   18.27616328726970
H        11.20567035280652    4.89780338185434   16.80213648583728
H         9.92485404746453    6.08670173142940   17.05277677258923
Fe        9.78136285115385    9.22494025904403   16.28186560254866
N         8.41388536373398    8.57678286929109   15.64639524097335
N         9.92924819009603   10.79877424097258   15.83547985448907
N         9.73112429451285    9.14613896552608   17.92017786367675
N        10.85224367825742    8.63334513538390   13.91423668858314
N        11.71717724920620    7.81002423432264   16.25295956367872
O         7.34577199709558    8.28571174465027   15.31747403222361
O         9.80844379360448   11.93091176739499   15.64765507444002
O         9.49698948347296    9.22910613657310   19.04685063601259

