49
CSD_code = BALMIL | q = 0 | S = 0 | Stoichiometry = C16H16CdN6O8S2 | MND = 5
Cd        6.28679229026302   11.31783258496612    5.44704892815220
S         7.27801861631204    8.95071513521744    4.94699876553877
S         5.79260206881169   12.50640617494180    3.16123992568460
O         6.18223329994386   13.38137266748093    6.48136908449882
O         8.08398935694331   12.28207374145997    6.34818365130269
O        11.69729817325313   13.49700446217501    9.36956884475395
O        11.69787889934251   15.41160746650321   10.34268453301842
O         4.14255716374409   10.90437525100767    6.10463866823317
O         5.79747318669314   10.43021848964434    7.47704019415987
O         4.87608500963346    7.70159901258459   11.37397930342234
O         2.88220363705225    7.56310106455993   12.15978397278196
N        11.18259420214630   14.55678787854551    9.65430815948724
N         3.68415937086292    7.92132593357197   11.32414739335789
N         8.59750928271113    9.56412079950251    7.16446093461828
H         8.90318166624253    9.36331916291183    8.10394762992089
H         8.49825424998966   10.54199349389629    6.89990866081362
N         8.02132641652553    7.35764993695627    6.86133941140313
H         7.59090002906717    6.65226976316260    6.28973803042483
H         8.44500885823985    7.09423796690826    7.73523570930210
N         3.81904031287698   13.43974949597731    4.66586150857513
H         3.89767751758041   12.58474694976529    5.21196101617724
H         3.29067786770901   14.20020988740990    5.06377647715646
N         4.67614250013858   14.84971605183913    3.05893285908653
H         5.30549722451361   14.98686695919807    2.28741942126530
H         4.00215444052750   15.56340909916336    3.27891628867258
C         7.37493910635596   13.21624314483154    6.79872379265152
C         8.01250601110168   14.17470961082867    7.76575147883834
C         9.29252638840860   13.92914310938408    8.24031311724059
H         9.84224426187620   13.06187020846930    7.90684032223235
C         9.85798221407407   14.81666356810757    9.14374765785451
C         9.17260200216554   15.94795455137316    9.57292857029599
H         9.64709305226598   16.61656660604641   10.27501755635799
C         7.89700764805826   16.18405865018215    9.09398805681046
H         7.35369976778198   17.05670896797308    9.42260422813258
C         7.31761403605000   15.29987582563621    8.19847627384153
H         6.31969012071635   15.46226876810904    7.82016528997252
C         4.58579474444995   10.45303444717190    7.18816196356367
C         3.60794131798762    9.88638403930066    8.17995803791873
C         4.08810117049847    9.19666192195344    9.28297803148321
H         5.15163259612688    9.08492337508930    9.42995623414687
C         3.18682139493839    8.65732950461440   10.18826940442249
C         1.81442795402999    8.80621472887755   10.01634907927273
H         1.14251700973099    8.37495554646507   10.74288408965491
C         1.34543226732106    9.49537193901509    8.91306221109665
H         0.28272677979134    9.61262872791111    8.76660150920697
C         2.23636369532355   10.02820185222714    7.99460995884138
H         1.88563403542127   10.55796555143502    7.12197911816209
C         7.99199322601149    8.63044595171555    6.43953018766166
C         4.70295355840979   13.66920997399233    3.69831445857595

