87
CSD_code = BALMOQ | q = 1 | S = 0 | Stoichiometry = C42H42CuP2(1+) | MND = 2
Cu        0.00000582218025    6.74199454136261   -0.00000850840889
P        -0.15278650161008    4.91404063826621    1.27758099994331
C        -1.66204860288118    3.87516510229860    1.06758356193640
C        -2.86600620049789    4.77118987691720    1.07493535750078
C        -3.16058530497494    5.52935689609935   -0.05272160687863
C        -4.26007121032997    6.36930390506236   -0.06698442387033
C        -5.06705155754901    6.47564953595771    1.05432054204630
C        -4.77184726086092    5.73361462378366    2.18524556227799
C        -3.67722197073905    4.88523743742127    2.19621142215792
C        -0.14187724185367    5.25730869421234    3.09018131999620
C         0.91644245110725    6.28573311946770    3.36441248345707
C         2.14970255628634    5.93907631011936    3.89968829204171
C         3.11610572145021    6.90772114897175    4.11532259463880
C         2.86067535186302    8.23084932961858    3.79787201982594
C         1.63352866474567    8.58363738426031    3.25920486245551
C         0.67152936881424    7.61476272501019    3.03599460739396
C         1.21224948856940    3.68623194792602    1.09477092060897
C         1.48344661094683    3.47926866771330   -0.36676142010784
C         2.21336686787198    4.43444078598342   -1.06519753136728
C         2.46939333659365    4.27556447690538   -2.41570713202549
C         1.98136870366395    3.16636414512118   -3.08758367661086
C         1.24227188115442    2.21775876386777   -2.40132684194276
C         0.99390844591350    2.37245515020108   -1.04750211342179
H        -1.70353743201009    3.13406369233760    1.87137538064566
H        -1.57056802818883    3.36220519294392    0.10566406630374
H        -2.53258605304006    5.44440103687715   -0.93023947180995
H        -4.48743988355061    6.93665404378734   -0.95779018493658
H        -5.92372978449886    7.13139969418790    1.04438747587360
H        -5.39867361555464    5.80936985982190    3.06059927927799
H        -3.46387731766037    4.29579165039662    3.07674797651392
H         0.04087580627762    4.32743242339280    3.63641817089953
H        -1.13029667161511    5.64545939859297    3.35317627363687
H         2.35150480310802    4.91124128032027    4.16627235637665
H         4.06910742970998    6.62851483644534    4.53787134395713
H         3.61294904274456    8.98457845200931    3.97096400865598
H         1.41851428819781    9.61376651297113    3.01491484475514
H        -0.28966020386810    7.89225476255507    2.62320479824509
H         0.92710154093857    2.75411294304711    1.59138628222691
H         2.09202839781305    4.10715811026292    1.59044625041254
H         2.59679830578344    5.30010870391372   -0.54073879561434
H         3.05310452990103    5.01922395939528   -2.93866855448906
H         2.17909395221762    3.04137729248885   -4.14080777628408
H         0.86239035915006    1.35055283283104   -2.91971744643005
H         0.43072906621583    1.61884085816587   -0.51516239393077
P         0.15280030543154    8.56993910731744   -1.27761114279929
C         1.66208012289376    9.60878813747716   -1.06760887620206
C         2.86602726410363    8.71274884733416   -1.07488735553706
C         3.16057084303844    7.95463309832595    0.05281333780177
C         4.26005360375834    7.11468196582316    0.06714549645150
C         5.06706753035954    7.00828283689296   -1.05413040791515
C         4.77189732453631    7.75026564470219   -2.18509858077081
C         3.67727484855843    8.59864515167501   -2.19613462998700
H         3.46395330950753    9.18805058981891   -3.07670383210081
H         5.39874729860546    7.67446876063923   -3.06043179659012
H         5.92374388382718    6.35253098076829   -1.04414555202221
H         4.48739365389006    6.54736769332555    0.95798129567125
H         2.53254795555166    8.03962703793516    0.93031002224106
H         1.70360838689277   10.34986363363866   -1.87142274988162
H         1.57057737506309   10.12178037182553   -0.10570803558890
C         0.14191836259495    8.22662116451803   -3.09020227251642
C        -0.91644853373473    7.19823993882286   -3.36441597661923
C        -2.14968874997726    7.54494199891692   -3.89970905027902
C        -3.11613691564992    6.57633741039418   -4.11532403735942
C        -2.86077280000626    5.25320479688488   -3.79783794741089
C        -1.63364644603191    4.90037257605749   -3.25915403743577
C        -0.67160306028533    5.86920702369757   -3.03596153606613
H         0.28957122835050    5.59168240529560   -2.62315925185744
H        -1.41867928856302    3.87023925157200   -3.01483904289513
H        -3.61307841846518    4.49950405276467   -3.97091513597181
H        -4.06912270040423    6.85557803254770   -4.53788605073395
H        -2.35144319381601    8.57277883579968   -4.16632248966924
H        -0.04078513242079    9.15649047117526   -3.63646730250729
H         1.13032249614940    7.83841652919958   -3.35317313374750
C        -1.21220435146623    9.79778947783038   -1.09485525015664
C        -1.48342394989864   10.00478427522257    0.36666658238993
C        -2.21336166470332    9.04962799415429    1.06510748652963
C        -2.46940579720976    9.20852766993593    2.41560913636202
C        -1.98138570454384   10.31773471245443    3.08747617223403
C        -1.24227174667295   11.26632448371805    2.40121507942752
C        -0.99389152745509   11.11160435205671    1.04739757005277
H        -0.43070615420048   11.86520915124506    0.51505394902081
H        -0.86239507139378   12.13353409077165    2.91959917356295
H        -2.17912044095909   10.44274022662379    4.14069421052868
H        -3.05312451010102    8.46487803053974    2.93857344132011
H        -2.59678707343174    8.18395561533086    0.54065456473332
H        -0.92701875714727   10.72989127851947   -1.59148152283746
H        -2.09198175650877    9.37687755316005   -1.59054569680295

