85
CSD_code = BALQOX | q = 1 | S = 0 | Stoichiometry = C28H46LaN8O2(1+) | MND = 10
C         7.87342627765439    3.27124453870471    4.57261262910205
H         8.10964945273361    2.22461852296671    4.82703499950183
H         8.80864059268913    3.80667171086387    4.39611263486637
C         7.06894157531787    3.28937629908838    3.27539694322039
H         7.64328611940487    2.74199661543094    2.51408794859181
H         6.11814449498515    2.76755317480473    3.40209754922182
C         8.07928866894354    4.01892398795829    6.83231290321848
H         9.05425609382792    4.34580414325056    6.46949394991674
H         8.19918002804200    3.03371466206802    7.31023854199998
C         7.61070859727125    5.03470617832955    7.87401982673661
H         6.57003487602117    4.85823899908552    8.15507183356437
H         8.22927765169596    4.91042580306372    8.77588700210458
C         5.93925675745277    3.24197122260561    6.02561756035443
H         5.86751824764436    3.14234329903675    7.11146854656642
H         5.91769993481056    2.22847670636380    5.60608462644180
C         4.70418780105399    4.02411801641231    5.55054996829712
H         4.65721255667542    4.03125001323747    4.45861876961039
H         3.80694527100320    3.51992354973682    5.94349859605919
C         4.04427529170734    5.70215864656243    7.01329972579934
H         3.36134003326160    4.93376811378181    7.40516485599901
C         3.95846026283256    6.94091810236411    7.70775491584643
C         4.74337814360781    8.09649435749599    7.38382943540532
C         4.58438797620223    9.24093387440824    8.23238837290139
C         3.69089049930245    9.23166136275638    9.27293967288043
H         3.59036708528557   10.11396933187363    9.88899154634796
C         2.90665714840734    8.11042916719413    9.55640746611981
H         2.20748720018572    8.13288307048666   10.37678898102622
C         3.04999914207196    6.99103293926390    8.78661857500273
H         2.46003381068337    6.11090249780734    9.00219594660566
C         5.40764584452623   10.46594469073396    7.95598579377911
H         5.48154119972039   11.08620750543174    8.84524603468246
H         4.95176074787027   11.06340255415470    7.16523923912277
H         6.40877988544458   10.18300958149164    7.63474116004823
C         6.45863425539867   10.45067247319252    4.19590428071609
H         6.01528582887318   10.51130690247073    5.19029660053385
H         6.30896698221407   11.41733320551589    3.68931550049129
C         7.95583488751390   10.19807698314077    4.37282483880452
H         8.43072981330673    9.96246098222075    3.41781874388722
H         8.41479855413988   11.12106468564026    4.75854227869922
C         4.33702741501864    9.47926811098748    3.68376414240607
H         3.94283497705304   10.40937145561447    3.24156348205328
H         4.15736561616420    9.50265232382475    4.76063785879744
C         3.56588147594567    8.29679546242072    3.10287536428079
H         2.49432337405518    8.47604734735091    3.27224031652250
H         3.71700478197199    8.22864165543004    2.02359822669095
C         6.11765407198300    9.39607002198023    2.04883850362312
H         6.96187686146570   10.07007595334390    1.88393347234696
H         5.28086959228030    9.77375519871940    1.44828439738290
C         6.53101398130173    8.00448277368529    1.54289284144081
H         5.67490299459938    7.32546573421729    1.55896065914388
H         6.88600277870719    8.10841369889733    0.50530678372891
C         8.76391255443365    7.52638131718304    1.95843622578881
H         8.91841014249333    7.92357315033823    0.94407733475753
C         9.97089219072341    7.13396998880197    2.60121689379772
C        10.02981135236573    6.57497882499349    3.92036788828485
C        11.33506178330089    6.29700767326936    4.44378135687644
C        12.46123123349281    6.52569599425703    3.69515621893392
H        13.43000516212932    6.29817036509158    4.11701699946622
C        12.38783480386613    7.04178896005577    2.39877620581092
H        13.28889982006186    7.20514469460869    1.83007538879116
C        11.16255726163478    7.34017716871995    1.87372128369774
H        11.09050033477555    7.75080796560146    0.87609325417841
C        11.45093921428173    5.73301680806744    5.83060952254926
H        12.45605532947018    5.87512519992506    6.21877497553585
H        11.23767704832293    4.66291677706319    5.82706283159436
H        10.73962392182629    6.21866486964866    6.49770299133578
La        6.67882715724007    6.79563022295267    4.80683675809495
N         7.18193391570452    3.93831782328232    5.67707627309982
N         6.80263920328897    4.67483922426008    2.87416145254321
H         6.19768724087911    4.67115476938292    2.05527993090176
H         7.68968393608194    5.07833511267450    2.57338640672192
N         7.70345325284133    6.38781200380377    7.32408402254538
H         8.68847422744682    6.62705192235572    7.21654705813505
H         7.29218243214492    7.04681322230923    7.98185001891447
N         4.79767499233024    5.39383229208460    6.01307352507873
N         5.78186448232780    9.36881403380877    3.47619939450865
N         8.16586148933483    9.06146892507623    5.27071233868304
H         7.88190981411249    9.33447642388519    6.21085611102598
H         9.15773043188715    8.83438607042314    5.29815708295817
N         4.02144042444239    7.05032753773530    3.72753368457713
H         3.56010528746140    6.26497259144996    3.27237509682229
H         3.69026608530772    7.05742333195744    4.69206858112164
N         7.55819648805634    7.46687773420942    2.41197807005141
O         5.55774964260902    8.14546168072518    6.38687324049600
O         8.98593983299915    6.31575711253194    4.62928673983474

