62
CSD_code = BALSIT | q = 0 | S = 0 | Stoichiometry = C27H24F3N4O3Y | MND = 7
Y        -0.00019945413712    7.86318327729181    0.58999348049040
F        -1.26611236419748    6.03885419956769   -3.11099223799855
O        -0.76677400630336    6.30206614228493   -0.49205846423329
N        -0.00006477801922    7.86298324942176    3.34771983122745
N         1.09294401522468    5.99299251066845    1.49427094558987
C         0.57017145661180    6.58743098529852    3.78651136831839
H        -0.22221036326836    5.83606974302488    3.79102280700212
H         0.97845999132361    6.66115845180840    4.80698197841427
C         1.65852122403413    6.10603892172008    2.82085352132937
H         2.48118849217795    6.83340032733838    2.78999666163973
H         2.06627483085531    5.14730655664651    3.17636949438444
C         1.58576368671558    5.11253988095800    0.69468775850869
H         2.40503585823738    4.46717645554128    1.04293044177850
C         1.17090468532522    4.89971242744404   -0.65386462145564
C         0.03261697754579    5.58070595333100   -1.19289231242279
C        -0.21350442503594    5.37161187586962   -2.57718458897075
C         0.54712309761118    4.55799985153336   -3.36867775366492
H         0.30942234740564    4.45783144207961   -4.41638383421853
C         1.62880930492393    3.87406173486562   -2.80503301663755
H         2.23028662034306    3.22742174747298   -3.42411855178480
C         1.92700592962392    4.04667151875437   -1.47862850794728
H         2.77856629742353    3.53820357003697   -1.04772045197248
F         2.21211019979618    7.67977194411557   -3.11133494012368
O         1.73484929700830    7.97996765537812   -0.49228589667144
N         1.07304222853787    9.74473267458234    1.49455679528048
C         0.81949954532148    8.99451024186797    3.78670092330023
H         1.86637815336558    8.68393034362926    3.79122629308927
H         0.55146913745943    9.31111500422981    4.80719845400639
C         0.69231807933524   10.17786106323719    2.82118128101130
H        -0.34891424271336   10.52667291305672    2.79031532669087
H         1.31874924611557   11.01028400450101    3.17682268537876
C         1.58914840049333   10.61187113223001    0.69511472432927
H         1.73845992481382   11.64399518923837    1.04353809252364
C         1.98085043291736   10.35924732595999   -0.65348739257414
C         1.95999205226747    9.03310190066003   -1.19284038662429
C         2.26397557852880    8.92482035374735   -2.57720092321932
C         2.58842801587401    9.99049505586135   -3.36843878628573
H         2.79392030072950    9.83496678006845   -4.41620279750757
C         2.64018009780510   11.26907521333687   -2.80446331830086
H         2.89961534714646   12.11339830768019   -3.42333000064330
C         2.34169410706125   11.44072330342010   -1.47800106383732
H         2.35649816652758   12.43231142588011   -1.04682607292942
F        -0.94670733392626    9.87022945549915   -3.11074155697763
O        -0.96917754799997    9.30768950581162   -0.49152347790910
N        -2.16628708808643    7.85130086350541    1.49468208050617
C        -1.38975492671405    8.00692839890691    3.78679047792492
H        -1.64424420348894    9.06883754558344    3.79134241989069
H        -1.52983983617336    7.61648025906471    4.80729126408882
C        -2.35102264731572    7.30508736909500    2.82132958691272
H        -2.13255199401301    6.22893082261997    2.79051962999676
H        -3.38511716598003    7.43144622721214    3.17699504551340
C        -3.17515687375167    7.86430456831954    0.69505174839384
H        -4.14361307148895    7.47727016583298    1.04328677611927
C        -3.15197832224752    8.32966058028368   -0.65361957554306
C        -1.99320628199430    8.97525120795018   -1.19256336269490
C        -2.05086390390268    9.29217361728028   -2.57703495311107
C        -3.13538032258098    9.03932704567924   -3.36879412579882
H        -3.10298726699122    9.29464257302445   -4.41664278654567
C        -4.26846400627660    8.44433189855235   -2.80523310241686
H        -5.12889795236790    8.24603728311884   -3.42451852158384
C        -4.26840070108664    8.10047432562591   -1.47864305500640
H        -5.13444204642450    7.61702363138309   -1.04780145602739

