57
CSD_code = BALTOY | q = 0 | S = 0 | Stoichiometry = C31H21ClO3Ru | MND = 8
Ru        3.95780691333253    7.74744600113414    2.79540862304095
Cl        4.79924999197298    6.51269001599165    0.94448354343232
O         5.29337252356405    9.56233832526932    0.34585487696425
O         1.27002666248914    6.43122122192870    2.61280470257085
O         4.86365248915676    5.63795682376651    4.72567924984595
C         4.80548533630358    9.51593695816020    1.59386184428000
C         3.44787987789130    9.78330595573127    1.93559986306355
C         3.36869844780093    9.80345123977219    3.38132639464119
C         4.68289514917802    9.54945493774316    3.90832055013690
C         5.56225911600973    9.29351108488247    2.79968245091377
C         2.38751188147207   10.21255386441468    1.01007114174867
C         2.70187806215750   10.99892918479219   -0.09606547634451
H         3.72942470343811   11.26959327798839   -0.28344399261611
C         1.70379775939311   11.42761259081153   -0.95174028012313
H         1.95993963725101   12.03460532473400   -1.80758014110969
C         0.38415405598003   11.08312445343286   -0.71553141357205
H        -0.39289974925869   11.41932197061341   -1.38570345020342
C         0.06488621250702   10.29754378126666    0.38015493772575
H        -0.96111884114790   10.01652265510155    0.56576008648928
C         1.05679639248992    9.86218017165760    1.23680394359467
H         0.80188129393345    9.23446371506071    2.08009605965892
C         2.21416941202119   10.23784650638920    4.18236188184700
C         1.57744847559630   11.44489159626066    3.90324790804919
H         1.92665883403731   12.05680142742002    3.08413029520930
C         0.50726388441565   11.85790487792920    4.67555108056340
H         0.01694771559551   12.79325194407992    4.45040040545207
C         0.06608713866546   11.07821917500334    5.73144662305448
H        -0.77156627349066   11.40298424196214    6.33003355251308
C         0.69851910861279    9.87837175048277    6.01590820982827
H         0.35513158501782    9.26561427696463    6.83569877087039
C         1.76589145511930    9.45785857332473    5.24625105148869
H         2.25646842686829    8.51184003497481    5.44825451638853
C         5.11389623726175    9.70805631326045    5.30395214256338
C         4.65170974685426   10.78400200538731    6.06019793849628
H         3.95781440241865   11.48743584649968    5.62466171363317
C         5.09007442067563   10.96228654173785    7.35934743003067
H         4.72275590602045   11.79903972465790    7.93464413547113
C         5.99645651225731   10.07807005986524    7.91880267014281
H         6.33547570589751   10.21951445758195    8.93393577260262
C         6.46854514145821    9.01182930081054    7.17030314703640
H         7.17691238340403    8.31948628976926    7.59956147030674
C         6.03306460067781    8.82686688566494    5.87290767425693
H         6.39747579846004    7.98862974332545    5.29459477766359
C         7.03681118348201    9.24854482811763    2.83556607261825
C         7.74431587770019   10.22371631904544    3.53533503304513
H         7.20765450707659   10.99566523473433    4.06803777777833
C         9.12617836349556   10.20331087374769    3.54550664441321
H         9.66650607325346   10.96062842713101    4.09397390494192
C         9.81607587678851    9.22039633687470    2.85484761881205
H        10.89564194121042    9.20858137691838    2.86573067098815
C         9.11802798513771    8.25141473883511    2.15426478541126
H         9.64973924318795    7.47896708308221    1.61908706473639
C         7.73499329674834    8.26222926627549    2.14192391394343
H         7.19223375118235    7.47928967043068    1.62637596659384
C         2.30163611363419    6.91771719644261    2.68504361162886
C         4.51346992899770    6.44009815885249    3.98897591772079
H         6.04943732434324    8.96337536190558    0.24859433576277

