100
CSD_code = BALTIS | q = 0 | S = 0 | Stoichiometry = C45H45FeNO6P2 | MND = 6
Fe        1.53702583119805    8.62685922721843    3.45479343555210
P         0.05617350352502    7.44529884427678    2.40852713757012
P         1.75685424927208    9.92842941069208    1.72295081994074
O         1.97745580582058    6.37630238770199    6.48152666173760
O         0.83979187806717    5.39515690304293    4.80701525608780
O        -0.87638099130628    7.07740136644691    7.21840819487292
O        -0.78088784117646    9.24413406958010    7.82024299490047
O        -0.07934809427012    9.72345293892486    3.59794270795784
O         3.65311876131079    6.69013097611942    3.68859904678974
N         2.22444707890849   10.05078765627389    4.76609352883895
C        -0.01209547962177    8.58380080157107    5.67503539575821
C         0.79944652345922    7.74565390141540    5.01702676083080
C         1.15605957831909    6.39571115735294    5.41562958515648
C         2.46855065660967    5.09713706927299    6.84970092237216
C        -0.59241388070220    8.37685207695852    6.99664674582666
C        -1.38842136023421    6.76893716547467    8.50299262861479
C        -0.11678249845035    9.95121525319192    4.96467360720413
C         1.21203556223775   10.51691357324557    5.37870057239858
C         3.57823416342344   10.41509543396175    5.16757231429179
C         3.69290386532628   11.90587867952109    5.51284017318404
C         4.52626726134690   10.10318862506071    4.01070241902784
C         3.93072842875221    9.54302305817553    6.37836024443087
C        -1.33015772664448   10.76975183274358    5.32440084773890
C        -2.55912022009026   10.14232905279333    5.47544076959709
C        -3.69842555806108   10.88268366308806    5.72937434583277
C        -3.62435862437934   12.26147493943715    5.82912239077418
C        -2.40492607016122   12.89461241772710    5.66526316222921
C        -1.26415648457447   12.15410790250146    5.40896879744929
C         2.86059087151570    7.50788644623793    3.50041585899927
C        -1.66407488100552    7.42559180380038    3.00645322234392
C        -2.64219636641931    8.27408610346779    2.49945513605876
C        -3.93453578254181    8.22640955567294    2.99235784381059
C        -4.26548392266071    7.33883579889615    4.00205651628147
C        -3.29209705677848    6.50250402654038    4.52517078813034
C        -1.99981732040555    6.54599777277099    4.03427323808042
C         0.32255243730584    5.72253536502095    1.86522554569327
C        -0.66270042398283    4.74545608359819    1.81805062362231
C        -0.35873587622710    3.47658727841183    1.35555223891325
C         0.92295427426947    3.17301658590809    0.93127950683343
C         1.90552538745461    4.14977245192522    0.95621381005757
C         1.60335522554194    5.41542409598536    1.41803452542039
C        -0.07483381688136    8.19549456622938    0.70681194796830
C         0.19004252273955    9.69255016008301    0.76175340646345
C         1.81991370847297   11.74069869383289    1.91874523871894
C         0.72777459887495   12.41607904908883    2.45618145911120
C         0.79148408743189   13.77787623210692    2.68959520599699
C         1.94862968974304   14.48241595185659    2.40085105496569
C         3.04516719542130   13.81627094172265    1.87856217951328
C         2.98418015658271   12.45481098594919    1.64196315434109
C         2.96512332578436    9.66640602835847    0.37138044875303
C         2.93954991506532   10.42037035873107   -0.79904297505266
C         3.83897202721733   10.15799600932587   -1.81520359869268
C         4.77155339996985    9.14165960696644   -1.67521228619518
C         4.80784630725151    8.39234937342132   -0.51154949637307
C         3.90848709247874    8.65708955855816    0.50641476299974
H         3.16245092210670    5.26176818350543    7.67053509402361
H         2.97596762393526    4.63255063811271    6.00129367487953
H         1.64650588976949    4.45076677220444    7.16490939943240
H        -0.62180769238526    6.92568467757728    9.26555553326582
H        -1.68370471664518    5.72286633752893    8.47075360076885
H        -2.24590776049437    7.40600473217012    8.73238023790245
H         1.25905242449391   11.20727156155091    6.21232459733881
H         4.73773291916483   12.16775406964462    5.65794186151130
H         3.16001304276982   12.15135802966452    6.42765386339451
H         3.29277490468519   12.50834069829867    4.69904253349907
H         5.52771826733818   10.46063123555974    4.23488760099694
H         4.17182169349684   10.58239063485328    3.10147155654670
H         4.56681579909321    9.03476487581214    3.83980079999370
H         4.97442431138727    9.67641243352302    6.65063548430757
H         3.75367248878408    8.49713581292112    6.13656627576397
H         3.30509129690275    9.80149051349120    7.22989101498015
H        -2.61773562179923    9.06772385703644    5.39445992558046
H        -4.64723150130113   10.38008957421416    5.85076952202220
H        -4.51362888615877   12.84077190989374    6.03189252095662
H        -2.34061336852551   13.97125388040782    5.73792335419298
H        -0.31804435295231   12.65771176324340    5.26971919953584
H        -2.40248842476013    8.98744166043612    1.72670651227894
H        -4.68518308265092    8.89190682709017    2.59038562010001
H        -5.27508052615576    7.30533323809977    4.38570309074894
H        -3.53889157372237    5.81505395731074    5.32150024263639
H        -1.24231154472968    5.89312218895544    4.44036338801093
H        -1.66783037938631    4.96850419829708    2.14345373477148
H        -1.12907341808933    2.71917066095463    1.32918476155386
H         1.15647559630921    2.17806124517174    0.58115871128966
H         2.90672392114530    3.92058717281941    0.62080621437165
H         2.36005727398198    6.18748864153924    1.44023072776854
H         0.71261652133278    7.71116103557458    0.11541339802572
H        -1.03897271636708    7.95238892557256    0.24981619187786
H        -0.60102620606337   10.20444677675642    1.30934939779095
H         0.27714074101878   10.12285017193773   -0.24092145707531
H        -0.16339742817900   11.86527332026069    2.71469858963540
H        -0.06574072769153   14.29083458472735    3.10164847815616
H         1.99867570412784   15.54542370127482    2.58592899755915
H         3.95304534979847   14.35850082013479    1.65688017601359
H         3.84592359965145   11.94622771636226    1.23057446017684
H         2.22259574121361   11.22353477487303   -0.90665468248976
H         3.81492654480306   10.74739145577620   -2.72048125959327
H         5.47083081482800    8.93866467029879   -2.47281317101888
H         5.53669278791700    7.60356574586387   -0.39752173825214
H         3.92467865385710    8.08933305044797    1.42554114103110

