73
CSD_code = BALVAM | q = 0 | S = 0 | Stoichiometry = C27H41N2ReS2 | MND = 5
Re       -0.43628903717969    2.29685330492693    2.79519841266757
S        -1.35337600985031    2.88359181100052    0.66244470906945
S        -0.26098673099740    0.03799465054959    1.79163654419562
C         2.36685000177718    3.54877870389158    2.98838851707124
C         2.63652630114896    4.51337296703811    3.99430845632946
C         1.47625997860642    5.15939589215621    4.70742077543783
H         0.67234123448238    4.41531744282895    4.77492116402572
C         0.96662180031011    6.32648812584868    3.85398518735199
H         1.74739656597334    7.07452145132579    3.73054554827888
H         0.10676223219631    6.79297643523790    4.32814184929046
H         0.66914034597289    5.96756419259731    2.87152894951463
C         1.81150699562721    5.63243320671458    6.12002582896525
H         2.29110417547461    4.83927100677981    6.68821035311668
H         0.89614178364078    5.91724970323983    6.63353926158887
H         2.46657892344956    6.50012015772013    6.10191270815372
C         3.94745252882864    4.88341584932836    4.22794575725327
H         4.16629286662460    5.62259611529148    4.98199630519114
C         4.98981830030895    4.32173028366892    3.51136720324888
H         6.00715018728136    4.62233858261703    3.71289653835487
C         4.72929111235770    3.38201544461381    2.52794462502491
H         5.55233095430721    2.96037200167789    1.97341330078113
C         3.43752400075455    2.98375754609633    2.24515924229449
C         3.11157810445481    1.99229355902425    1.15532955596947
H         2.26354364154727    1.38775306833434    1.50290006575037
C         4.25730436136576    1.03935103986589    0.82539931921361
H         5.06708865136162    1.55650543162266    0.31539743597483
H         3.89766576265673    0.25128164177836    0.16701982540637
H         4.64449925678873    0.57588830519008    1.72998382253980
C         2.67978611114901    2.76864228258148   -0.09551676474649
H         1.77435201484402    3.33940832577716    0.10427933269788
H         2.48822823951522    2.08493189971980   -0.92088020766035
H         3.46345428891760    3.46052922788182   -0.39928882303564
C        -0.76919250955940    0.69576232405681    5.41196092235065
C         0.37226254892742    0.57553200170832    6.26198069014116
C         1.63443065696862    1.29898536937873    5.87820119723607
H         1.34236953295028    2.23132234728071    5.38055760993891
C         2.40069413323186    0.45226685947781    4.85376272536395
H         2.68094274890894   -0.50657585203321    5.28482541353069
H         3.29995588044127    0.97726282981397    4.54062124775086
H         1.77958220244459    0.27413552232444    3.97724911684631
C         2.53299538506221    1.64537533633190    7.06252084916372
H         2.99519637303382    0.75546266648380    7.48298728029932
H         1.96758280869901    2.15086224514648    7.84211714048108
H         3.32827081594940    2.30671963472466    6.72582641784789
C         0.28531495487919   -0.24357953905765    7.36953344047411
H         1.13805101004279   -0.36058728368538    8.01939350963252
C        -0.88474793177381   -0.92788407811450    7.66432731273634
H        -0.92670602656813   -1.56403325383498    8.53631116812364
C        -1.99745813647207   -0.80753295089976    6.84801906543160
H        -2.89399956011295   -1.35643419987270    7.09266971245048
C        -1.96927369081165   -0.00414588562173    5.72484870255543
C        -3.15467971422334    0.10826312185128    4.80328490830231
H        -2.96819264322081    0.94123408289227    4.11341013385944
C        -4.45145752688475    0.39656928573911    5.55903997919622
H        -5.25409714835326    0.59497178774259    4.85219653486380
H        -4.33264351043122    1.26772258801210    6.19965969940899
H        -4.74668451330023   -0.44954054690386    6.17451510783082
C        -3.27073028484006   -1.17366473941292    3.97272318480238
H        -3.41839350903526   -2.03850254282695    4.61595456423187
H        -2.36283812179264   -1.32425263362992    3.39225167227245
H        -4.11403665720525   -1.10087713411451    3.28922782921931
C        -1.58559435670479    1.31630784865534   -0.23286929878958
H        -2.52426034368223    0.87096455093374    0.10666865828781
H        -1.67043430477933    1.57382910729391   -1.29104201872546
C        -0.42504116741442    0.37972250549530    0.01368816261667
H         0.51059142154468    0.81255443220570   -0.34569739526701
H        -0.59205035956761   -0.58539819042630   -0.46901439845362
C        -1.80370517803108    3.91911204709022    3.44994475016299
H        -1.69968608194584    4.19177509120522    4.50128478818129
H        -2.82363731117600    3.56375233449274    3.28749953241991
H        -1.66330485657222    4.81125280494098    2.84009516777346
N         1.11673381252393    3.15824111602794    2.72867008161865
N        -0.70606778490997    1.43690933216987    4.31724003447871

