23
CSD_code = BALZAR | q = -1 | S = 0 | Stoichiometry = C8H7N3O3SV(1-) | MND = 5
V         4.14843964627658    1.22261036168746   12.03200866753704
S         5.08065528446441    3.26355892704349   11.26388142778230
O         4.49184518583068    0.29424476722389   10.85236119940437
O         3.82399234741358    0.29446312787099   13.54408018153916
O         2.79082924988217    1.92226904509330   11.84139974230033
N         6.20335917959568    1.15384839237051   12.87398706387682
N         7.15383072921843    2.01286933605611   12.43205778311362
N         7.63945955696381    3.92892795597639   11.28581131404797
H         8.59542546336854    3.60859214252144   11.25729749676669
H         7.33010486779976    4.48427245333890   10.50455739086083
C         5.80788467820167   -0.92540251268190   14.00522362476418
C         4.39102803060093   -0.75949526279795   14.01124115598221
C         4.20381087323543   -2.90436854173573   15.14221823652697
H         3.58464903049702   -3.67557165451847   15.58243230406709
C         6.37195846732103   -2.07622749730017   14.56494177397535
H         7.44953950880776   -2.18506227108020   14.54832833192804
C         6.72211562232976    2.99509511446217   11.70327939362879
C         3.61800739461112   -1.78290135270523   14.60608853978318
H         2.54379518510124   -1.65599385591988   14.61188051440491
C         6.64481259444802    0.09023832243451   13.45004018808098
H         7.73029979525008   -0.04841051922569   13.52207689781255
C         5.58849685139183   -3.05953143809964   15.12517293022879
H         6.04126045739046   -3.94522504001432   15.54923384158793

