37
CSD_code = BAMCOH | q = 0 | S = 0 | Stoichiometry = C15H14CrFNO4Se | MND = 6
Se        0.23102186221278   -0.36696136853298    1.91240007927088
Cr       -0.16394863437275    2.16876402013953    2.82986602874592
C         0.39087952649267    3.91330579088512    2.37070174590705
N         0.47594652239931    5.21797240812775    2.30998466026372
C        -0.31374817792161    6.08204864847838    3.18101514123084
C        -1.06744721011377    5.32176273129548    4.26014513783956
C         1.41040314232788    5.89899899781823    1.42041030910206
C         2.77811190185296    6.06092483264699    2.07773455035216
C         1.25328322772443    2.08931547483422    4.03352879926520
O         2.16797913197267    2.16975716932243    4.72250638662624
C         1.09064535238390    2.95650880351789    1.57486958532349
O         1.96488431639578    2.84990438558959    0.76672259257356
C        -0.91406688031800    0.68614375417029    3.80054472180883
O        -1.29281678942638   -0.06073878175066    4.59345479490290
C        -1.58057203082572    2.38532719787289    1.62275971117569
O        -2.34580039654991    2.66676794508300    0.81874677649799
C         1.79736184065056   -0.70905187236129    2.97364133662699
C         1.72315960210997   -1.54078176898235    4.08301606567797
C         2.84489890953875   -1.75482318379332    4.86260039398761
C         4.03064599932234   -1.13930697405763    4.50474577925493
F         5.12880419732407   -1.34389893276859    5.26435966290411
C         4.12879227381732   -0.32282907487557    3.39118428091681
C         3.00161341139898   -0.11064893504619    2.62146535840930
H        -1.60780131001560    6.02898428595551    4.88382169014335
H         0.36737523462268    6.80258476150703    3.64618052065466
H        -1.02183972983618    6.64059883030236    2.55576390455172
H        -0.37553442370680    4.76161179898625    4.88909055470930
H        -1.78577782886508    4.62830801753306    3.82007390419284
H         0.99214542264911    6.87442308343429    1.15892787270584
H         1.51652028685134    5.30578789113877    0.50922293280126
H         2.70758353709377    6.64287153161658    2.99424381373238
H         3.45528963692110    6.56834138061439    1.39668729311239
H         3.19449078178673    5.08440831600662    2.31461171891277
H         0.78540119241424   -2.01206479360140    4.33860522809968
H         2.81026233668051   -2.38934456972865    5.73439178289015
H         5.07385043837486    0.13413007531372    3.14238704365207
H         3.04600332660181    0.52679812331734    1.74968784118907

