110
CSD_code = BAMDAX | q = 1 | S = 0 | Stoichiometry = C41H62IrN3O2P(1+) | MND = 6
Ir        3.94207782054558   16.03189070316100   20.48331806670007
P         3.51405548092774   17.80705309028503   19.02799961048769
O        -0.16796891713160   16.67169467840236   21.40484957933701
O         1.85391416966752   17.89983695710008   18.83391697452891
N         2.04869902399528   16.47827338581603   21.40314477819077
N         4.07751730731744   17.91270803624761   17.46072582639319
N         3.78963783607833   19.43189593183726   19.31132890143298
C         5.32859925147917   15.03351129179051   19.17732555456352
H         5.15329684437802   15.35809608579719   18.15605199487812
C         5.37502785612987   13.52914013881640   19.34243627731157
H         5.28972123115430   13.06491832564238   18.35988021360253
H         6.34482194480343   13.24553848410806   19.75054604047746
C         4.23806137232795   13.00771193699678   20.23883799112328
H         3.38386176267009   12.73936705653841   19.61538958287876
H         4.55319309515515   12.09730409989294   20.75725614312094
C         3.77796566206093   14.01958901452465   21.25936076263403
H         2.75360122846247   13.85162127508813   21.58728926366298
C         4.62840216706156   14.73197881131145   22.09692764878825
H         4.22003611682730   15.11757174364319   23.02673022783243
C         6.12622645771820   14.51988878450472   22.13182633999471
H         6.34200872850199   13.48147314829863   21.88125923516901
H         6.48201727639160   14.68695721120293   23.14873763674634
C         6.87361914235030   15.47091237075932   21.17956472604070
H         7.19282281407768   16.35579854315313   21.72956283826766
H         7.77837367438690   14.98886192549793   20.79808247728139
C         6.02450955749325   15.91741302711832   20.01358061914681
H         6.35705825358233   16.85505462219436   19.57531060286508
C         1.67346554578184   16.31292598557974   22.81164385041201
H         2.03616347034891   15.34533803430633   23.16997105963120
C         0.13144615733095   16.32329546208971   22.75823379264993
H        -0.30800652517205   15.34393862491970   22.96494116271099
H        -0.32459012208725   17.06455335059494   23.41381490094472
C         0.97695593314691   16.70563833296491   20.74083308288875
C         0.87906186028696   17.00313665767750   19.27937827458338
H         0.92101966710604   16.05594071446563   18.72697111455664
H        -0.09374241126502   17.47053730744285   19.09308173554678
C         3.84204363571563   19.26151996276872   16.94974355342459
H         2.79108719321510   19.37582039300579   16.65677883903904
H         4.46491954899150   19.44518051988888   16.07643183580575
C         4.16824287719632   20.18263640504295   18.11145765835027
H         5.23772912667777   20.42550918246301   18.13871265976480
H         3.61665611840000   21.11982769751664   18.04949894118685
C         3.52675780827157   20.21189313756257   20.47765205026118
C         4.43050142563174   20.20616924028592   21.55091228170259
C         5.56525092279349   19.20880666277542   21.61407228461923
H         5.20031405164998   18.27209288729742   21.16676104817402
C         6.00573939174104   18.89826899247235   23.04587815189370
H         6.58545157060330   19.71737221115166   23.46335525103550
H         6.63815781641632   18.01405864445352   23.05488580617011
H         5.15106451245319   18.71407272829861   23.69132239543941
C         6.77179286471809   19.70452874382755   20.81383059293840
H         6.51662911380486   19.85419622429922   19.76972411520805
H         7.58610477929777   18.98553305742675   20.87231304210120
H         7.12032808696762   20.65285500529949   21.21672914037510
C         4.26146703634405   21.13390826301383   22.56985881912676
H         4.96935380621233   21.17444108283821   23.38086349108734
C         3.20520474657091   22.02432818376700   22.55994599325408
H         3.10218013270899   22.75168751599245   23.35042258887345
C         2.27139428501222   21.96201565936941   21.54740726455946
H         1.42580572929419   22.63101742138339   21.56521819174890
C         2.41169796460262   21.06268651632042   20.49758254072023
C         1.33060799998979   21.01671185400668   19.44097306594945
H         1.58807033022573   20.26079150636564   18.69632429681310
C         1.16696084449875   22.36561940404219   18.73549361871885
H         0.78903346602490   23.11940201418455   19.42085154741953
H         0.46130047039158   22.27271741031984   17.91314123055673
H         2.11461254620547   22.72178174391744   18.33605763100226
C         0.00164364354533   20.59439026794076   20.07687063050867
H         0.10414576755250   19.63527036869184   20.58040514544598
H        -0.76419083644703   20.50294589240329   19.30996602943874
H        -0.33400005823869   21.32645503535597   20.80653317017054
C         4.68408522743096   16.97678008940414   16.57424485825837
C         6.05793159849593   17.08003153224549   16.29708647180312
C         6.61812515230369   16.22211987299285   15.36047270638193
H         7.66777238977803   16.30301705418722   15.12904776131153
C         5.85704603071178   15.26248239071974   14.72336448494984
H         6.31063531093710   14.60173734944134   14.00112926994048
C         4.51324893274224   15.15272921858035   15.01651761352608
H         3.92376095431500   14.39815605292143   14.52069106314883
C         3.90526259948801   16.01229025623408   15.92261288383230
C         2.42992105581028   15.86250284978593   16.20207434081372
H         2.09807312697750   16.73247181454119   16.77304346861672
C         2.19807901905033   14.59684460513574   17.03514366476954
H         2.62452386186434   13.73177039324517   16.53241134035574
H         1.13267987320159   14.41458021095816   17.16762507049800
H         2.67431627844435   14.69127584217539   18.01236341615357
C         1.60629384901431   15.82098453425248   14.91338039571916
H         1.85785487814723   16.66418671913059   14.27465042277902
H         0.54543033437241   15.87216492876304   15.14869020927099
H         1.78207224023348   14.90464042081937   14.35729827397350
C         6.95369222508114   18.07098799548419   17.00217949930401
H         6.39489636206800   18.49111123739133   17.84413673630269
C         8.21229479651854   17.39036883456307   17.55390860845318
H         7.97170231085359   16.44330099515576   18.02989050865203
H         8.69296618802080   18.03833909776924   18.28325502457200
H         8.92866518620410   17.19907074785875   16.76011155614788
C         7.37213746579177   19.20840328127296   16.06527633485446
H         7.91148190813053   18.81188265618369   15.20877855495358
H         8.02595115588402   19.90067881285416   16.59086376781909
H         6.51475049130852   19.76394414482621   15.69364597484910
C         2.30944396044299   17.41472474258456   23.67966035654281
H         3.37738330493529   17.40924874488053   23.43599715783196
C         2.13728892264612   17.08280585674880   25.15926799401725
H         2.61849568362154   17.84407839971744   25.76676484412071
H         2.58415617970845   16.12097965586234   25.40062124278188
H         1.08505819497980   17.04849259165794   25.43094989085057
C         1.76252244031288   18.80191072906493   23.35933009925378
H         1.83232281545863   19.01139725907008   22.29419537436905
H         2.34673535846279   19.55550739782003   23.87927574311809
H         0.72815288333452   18.91202369814735   23.67515922484233

