23
CSD_code = BAMGUS | q = 0 | S = 0 | Stoichiometry = C6H8Br2N3O3Re | MND = 6
Re        3.50283668925545    7.19222808568840   -0.27633150142424
Br        1.26054504474347    6.24721594744046   -0.27160015396149
Br        3.89205779585385    6.35677206640948   -2.52165474152446
O         4.23518882776799    6.00067081316541    0.59964914556596
O         2.84528291521355    8.90812856652986   -0.80368301507775
O         2.78168142967644   11.12824231411438   -0.58532596899813
N         5.38471173440059    8.39760792930872   -0.28145762336671
N         2.99941842293066    8.38394138253698    1.68499476858334
H         2.01368282904818    8.22200547512176    1.89106813363037
H         3.55598555624011    8.04248942434064    2.46454508091589
N         7.27111311246535    9.21437825160309   -0.99525890843429
H         8.11778588794897    9.32423259505082   -1.53076589259478
C         6.37808267617475    8.22708659209217   -1.12382196954609
H         6.45228462224378    7.41350751650522   -1.81886722188345
C         6.81716582822866   10.05957045639753   -0.02527935553410
H         7.34467623059887   10.94241319087896    0.26901890474903
C         5.63250284724778    9.54200659009848    0.42315560591867
C         4.76190117372405   10.10057902796951    1.50925569209767
H         4.88288357219543   11.18544592895774    1.50551818136535
H         5.11482678539143    9.72820264674035    2.47847403251408
C         3.27011552083709    9.77446533170679    1.35710929786990
H         2.67471381067166   10.47134178568635    1.95793700568192
C         2.90805668714085   10.01076808165656   -0.16037949654767

