37
CSD_code = BAMGUR | q = 0 | S = 0 | Stoichiometry = C20H14MoO2 | MND = 10
Mo        9.23701802163990    4.83212862229276    3.18598669370758
O         6.31259712689591    4.11456835490166    2.59647634770059
C         7.40984772952410    4.38180163185665    2.80194959081794
C         8.47235044042783    6.55897199322969    2.83090101940312
O         8.01233497434900    7.59547637936384    2.64979992248909
C        10.20926557296389    4.41887421716060    1.28606146927999
C         9.91617051526434    5.80277929191500    1.09164708943246
C         8.72253746495283    5.87910915842660    0.24966550391180
C         8.13280270516274    6.92608201379970   -0.42916675478553
C         6.96502624956613    6.67405778648013   -1.14158067034243
C         6.39541132041059    5.41228043273497   -1.15699986352536
C         6.97210008095975    4.35517744852952   -0.46101595840614
C         8.14121739036644    4.59089216392720    0.23391617277583
C         8.98169867833197    3.72848541230854    1.06272541945531
C         9.29681003917776    4.71449521444160    5.49082843003167
C         9.45838689847548    3.40227722584578    4.97331360622005
C        10.71145360024695    3.35601884848228    4.29653022676972
C        11.44056565125504    2.29665184856150    3.71433589623612
C        12.69073911367579    2.55045762321186    3.21532876843943
C        13.25530817189208    3.84152433000378    3.26602964669235
C        12.57820467045146    4.89644101044157    3.81855354981057
C        11.29099115712143    4.67489251215898    4.35254702038133
C        10.38744638384215    5.51561280709621    5.06349744732996
H        11.20178019181766    3.97266076845134    1.31148318136725
H        10.68740734531757    6.56542931437498    1.05228583558291
H         8.56491212154310    7.91560484057168   -0.41086347843121
H         6.49436488997484    7.47727008854465   -1.68865227749157
H         5.48636945944361    5.24542410431690   -1.71547193970113
H         6.51524624082561    3.37671236927278   -0.46697779626917
H         8.91691357443185    2.64650027883507    1.00353515662092
H         8.54663608960083    5.01345847059363    6.21581789402480
H         8.86291896400619    2.54356682865248    5.25588922780868
H        11.02286485318181    1.29851414094802    3.69579164803170
H        13.26801914489941    1.74889854096511    2.77843634409451
H        14.24741691784425    3.98991126445086    2.86575227361862
H        13.02747927491839    5.87888490423781    3.88066089270309
H        10.60318697524070    6.51550775861415    5.41818246421479

