50
CSD_code = BAMPUB | q = 1 | S = 0 | Stoichiometry = C20H16N7NiO4S2(1+) | MND = 6
Ni        2.70966786199288   -0.04541599831963    2.54588694044462
O         4.91179682007681   -0.09707781408327    1.97419929853183
H         5.00264722532560    0.87008662217160    1.88749370230964
H         5.54247643293705   -0.37275454458575    2.64403442708898
N        -0.98663990438376   -1.35253906943872    1.17942893992528
H        -1.51132264822971   -1.63895829734585    0.36944617528925
C         0.35303288006800   -1.16459620299475    1.24812711670523
N         0.73342448950982   -0.76165250524044    2.44880376899730
C        -0.59281217701508   -0.29241366479158    4.53506430933082
H         0.24430022293837   -0.00392684115986    5.15023657487628
C        -1.88165452964002   -0.29743406056576    5.02218611292486
H        -2.06477847331603   -0.00750256758580    6.04524725925896
C        -2.96843285374828   -0.66733508534654    4.22384486947029
H        -3.95900712051413   -0.65331366896921    4.65000882224666
C        -2.80301833510145   -1.04632617624392    2.90779568354619
H        -3.64131789473914   -1.33053475826004    2.29211801018856
C        -0.40189726873242   -0.66788829793171    3.20808091666821
C        -1.50837866736554   -1.04178109235150    2.41090108651052
C         1.30562375502943   -1.35790933782347    0.18339710771846
N         2.62563900920804   -1.19884333461391    0.50718954949602
C         3.39202647051409   -1.34230781112086   -0.51725731310774
H         4.46037628528077   -1.25603661588899   -0.47384537198423
S         2.56933871877739   -1.69769292979040   -1.99223218616890
C         1.08796205138363   -1.64286289381403   -1.13965270475047
H         0.16018325024848   -1.80564643143834   -1.64936868923364
N         3.49521745910400   -2.04173424895385    5.84983481768455
H         3.60143471976200   -2.02209750103645    6.85088411910478
C         3.20138726919185   -0.99001366574063    5.05030423417433
N         3.12489469180528   -1.34821650162878    3.77468708530481
C         3.43673262021984   -3.58570702196578    2.65824377895655
H         3.26663734929294   -3.23483102458769    1.65481171675459
C         3.72719157355646   -4.90190066907575    2.94179814772781
H         3.78291433101154   -5.61811653086626    2.13713839824205
C         3.95725986135899   -5.34171168014318    4.24991215548347
H         4.18214920451719   -6.38241240674991    4.42107108197671
C         3.90677256215747   -4.47620505058459    5.32251837434743
H         4.08720380394190   -4.81232024610278    6.33087257244310
C         3.37781334724123   -2.69471126148737    3.72698357734758
C         3.61497845401013   -3.14895835079660    5.04430856704897
C         2.98193572904864    0.37847867346542    5.43915106882523
N         2.67823497768629    1.22535350229693    4.40613590960082
C         2.48780624845301    2.43362123019707    4.81207420260596
H         2.24430127472177    3.25839602427997    4.17009558491207
S         2.66280102806615    2.65492755567850    6.51082905224934
C         3.01704373231133    0.98744554858790    6.66637889930027
H         3.22795227512257    0.55697645166293    7.62419229947024
N         2.85754228593312    2.36459687041298    1.43151190793548
O         2.14197956782367    1.30969577314339    1.42745019253254
O         2.50360362257102    3.30539380028116    0.78505190097570
O         3.87697641057267    2.33811410723982    2.11592594869399

