65
CSD_code = BAMQUC | q = 0 | S = 0 | Stoichiometry = C28H34N2Zr | MND = 14
Zr        6.33273817899156   24.44436170869805    9.95737554180447
N         7.76422005876007   25.34124979240663   11.16554908476683
N         5.82918391023790   23.10116949171826   11.45908267075125
C         9.03630132197182   23.51374554709698   12.75289433459449
H        10.03650500082823   23.36115450213462   12.35534008327423
C         8.01902492972137   22.33585247089379   12.90703938205757
H         8.27125672497662   21.31744290265579   12.62247113628958
C         7.96162269219996   22.68734254027901   14.37778810535890
C         7.39160618088169   22.36417119724430   15.58245835564713
H         6.70455796074338   21.54050322747836   15.71647853555267
C         7.76945996459035   23.16230567471705   16.66514121762411
H         7.35204082562569   22.95548177807203   17.64040720893810
C         8.66965184168655   24.20514911449615   16.52866440056965
H         8.93281594426787   24.78687960252389   17.40072418976465
C         9.25451051294016   24.52213974175861   15.30006565750389
H         9.97259682408412   25.32621691956584   15.22110812966578
C         8.87149006862400   23.74117771910899   14.23988667347073
C         7.96636816162449   24.20058210341979   11.90472663564844
C         7.07268429415428   23.16604845552423   12.04032510781354
C         4.88692820169758   22.07644095249588   11.89376477122017
C         3.75690235477856   21.99686610252650   10.85339065253836
H         4.18032321906302   21.92650023307906    9.84773776551994
H         3.12213917403697   22.87664793736344   10.91791745169340
H         3.13760947513093   21.12080672475681   11.03634828833204
C         5.53321782177521   20.68195404308373   12.01909160788111
H         6.14654627218678   20.62154454273814   12.91224751063147
H         6.15390093714932   20.47163647205530   11.15006109191466
H         4.76146327997563   19.91838528892017   12.08983686641933
C         4.29615132913442   22.47103075460714   13.26098449218745
H         3.57934985082495   21.72597654548088   13.59925417020242
H         3.79757947052054   23.43582178644543   13.18908935658966
H         5.09300176141344   22.55876937998908   13.99542063007241
C         8.68025012191694   26.46582792202294   11.31752714584814
C        10.16157117868508   26.03715765947686   11.31449000245020
H        10.34951134633105   25.32647380846041   10.51180293500040
H        10.43081935922844   25.57857247125013   12.26041639999610
H        10.80070463110912   26.90542852201004   11.16866461443931
C         8.38047126380484   27.19516441043782   12.64123027932153
H         8.50945048558573   26.51108674311229   13.47636409023429
H         7.35036287902210   27.54635955503944   12.65037822717635
H         9.04608372958308   28.04580657443353   12.77048080275976
C         8.45045545575985   27.42930697070179   10.14087912441670
H         7.49894489389350   27.94216158045739   10.25366287309721
H         8.45564298227267   26.87485702864798    9.19848500241200
H         9.23667246830091   28.18127093381732   10.11088621434987
C         8.14215894022072   22.77878965508469    9.16764920468104
H         8.84167534045265   22.25949370762237    9.80948476941992
C         6.89438643129114   22.28438649391365    8.73653340497991
H         6.49617449504444   21.30096921251187    8.95427698808271
C         6.36422196283396   23.19388284413434    7.79523436880513
H         5.48977916892463   23.02091540865287    7.17702028808667
C         7.28393075361935   24.25926879560077    7.65489520471795
H         7.23860968891777   25.04672959567298    6.91018510387790
C         8.37807400603058   24.00327829273833    8.51021222592938
H         9.30796878370729   24.55839862123615    8.52520935563339
C         3.90997262565332   24.93501586141266    9.28768546917390
H         3.14850887564197   24.21183665585653    9.02590839158375
C         4.66296807982533   25.67745734817344    8.36066788465881
H         4.59515541772608   25.59499033156004    7.28362096425091
C         5.39384198428091   26.65236941810911    9.06280044163635
H         5.95192254681739   27.45650622652633    8.60100185175249
C         5.06486290979346   26.53858361194883   10.43398571172353
H         5.34312444248604   27.22655572239975   11.22261303122548
C         4.14694482701116   25.47614940393463   10.57309431441721
H         3.61662937963899   25.22849335971755   11.48418220755872

