77
CSD_code = BAMROX | q = 1 | S = 0 | Stoichiometry = C38H34O2P2Rh(1+) | MND = 6
Rh       -0.78252224206525    6.34599042335485    2.93263468321720
P         0.82389814723539    7.92808862323231    2.97573883060921
P         0.53019879146931    4.54149172385184    3.28198478580234
O        -2.16210686535455    9.18785019932146    2.23784448885994
O        -2.58251563910329    3.70568016276237    2.42559311010830
C        -2.34903009585599    7.84536683632156    2.34926093893151
C        -2.73190685911038    7.22463759263666    3.55590492555711
H        -2.94260308528785    7.81670458131102    4.43859758031775
C        -2.83607304016099    5.81751003232736    3.60601076004549
H        -3.12593292102685    5.32529146777584    4.52654170834930
C        -2.56170136445693    5.06396014558003    2.44647267413300
C        -2.61982145403311    5.71071556504541    1.14327018600677
C        -2.75391670396536    4.99011784301891   -0.04974389433883
H        -2.84020548779005    3.91610158109778    0.00183648181760
C        -2.79014197516335    5.65391083449780   -1.25487938305790
H        -2.90282883460977    5.09523529816950   -2.17102226012939
C        -2.68439580980726    7.04444974904899   -1.30280510233868
H        -2.71624330592334    7.54980358661306   -2.25546091615599
C        -2.54183038528724    7.77603847725316   -0.14595803966483
H        -2.46186838876595    8.85130318429617   -0.16854861580293
C        -2.51198594120016    7.12666352760150    1.09404034276427
C        -1.30481436331486    9.82839024542011    3.16702856845753
H        -1.47279249675085    9.46578619834739    4.18721160842539
H        -1.57987732750865   10.88543844110887    3.12087177263585
C         0.16346909874448    9.65644069902641    2.75607038452066
H         0.79117191200033   10.34628832048042    3.32393671125455
H         0.24939047997390    9.90281377691790    1.69391719556185
C         1.85907743696945    8.03695092397347    4.46252929450401
C         1.46390777869209    8.78333114184034    5.56859755239804
H         0.57463158989144    9.39651071240976    5.52259140483635
C         2.21034909475939    8.74498473828266    6.73280538778249
H         1.90527837689670    9.33308823102120    7.58520372108779
C         3.34397439232015    7.95271977629001    6.80760564435607
H         3.92218857060945    7.92337895304459    7.71808234983055
C         3.73492016159924    7.19867630423255    5.71268062384504
H         4.61927708996941    6.58209488535650    5.76909921463358
C         2.99325844117974    7.23451186462084    4.54740371772776
H         3.28890658779607    6.65185863200203    3.68666426329610
C         1.97473650788153    7.85891131298504    1.57360123893978
C         3.23560304256255    8.44413794923476    1.57653552627976
H         3.60016211863750    8.94228854082990    2.46344242604221
C         4.02032533087340    8.37999775101094    0.43890904510147
H         5.00296553741690    8.82665048435442    0.44097053806115
C         3.54703757645573    7.75307414117577   -0.70297226340771
H         4.16488132439733    7.70974891374891   -1.58668864387362
C         2.28157597506393    7.18888610736516   -0.71505832937479
H         1.90831068124465    6.71260814143370   -1.60885713072146
C         1.49940551081172    7.23787548112402    0.42291023008512
H         0.50533232128973    6.79513699476111    0.43691042094290
C         1.03720626130111    4.39188073885223    5.02118359010424
C         0.57440090202162    5.35074424243533    5.91646157113794
H        -0.06752655620566    6.14895168572881    5.54761370858573
C         0.92732549111600    5.29036278306094    7.25153585604953
H         0.56784430306309    6.03917164250510    7.94066323580287
C         1.74445981069931    4.26624032569821    7.70109492371639
H         2.02785606788574    4.21895679104508    8.74116274814759
C         2.19104891353429    3.29465681286986    6.81885801814612
H         2.81673240264093    2.48999102521946    7.17424181077150
C         1.83662768377360    3.34978404268852    5.48318723326256
H         2.18243332443414    2.58580208905168    4.80039344270193
C         2.01264535066497    4.25889999355218    2.26667249504738
C         3.31189277328312    4.25252062410580    2.75933115334933
H         3.49075065545076    4.35322531849912    3.81969466619974
C         4.37898661566668    4.10591464491182    1.88933210077557
H         5.38645972722169    4.09796247702660    2.27718784485302
C         4.15970251312216    3.96756616763826    0.52940956434960
H         4.99564097936751    3.85193221549050   -0.14286052996318
C         2.86612984382383    3.97797463989145    0.03233691303889
H         2.69311626325532    3.86882759608487   -1.02738528467260
C         1.79910606608226    4.13307576688189    0.89517833717338
H         0.78724557004228    4.16457722032852    0.50921001987240
C        -0.36112940181631    2.93067852609809    3.01872630706442
H        -0.28583527773492    2.64898806446732    1.96573697860216
H         0.13485325146088    2.16696268227866    3.62186882245203
C        -1.84204986309218    2.99903085849597    3.40641434587433
H        -2.27337211835588    1.99485584550906    3.41185643082719
H        -1.95667084290604    3.43557408206922    4.40537793847282

