79
CSD_code = BAMSOY | q = 0 | S = 0 | Stoichiometry = C33H37MoO3P3S2 | MND = 8
Mo       10.58921452985799    4.73733061586888    3.08213024596337
S        10.19470176123896    2.14973924004167    2.95467793801233
S        12.61348689514474    4.00349949582539    1.45679041464513
P        11.37922699473202    2.46951704635474    1.34963818059081
P        11.79202822986003    6.51106593970558    4.06352431026302
P        11.86032979271083    3.93811608758435    4.92988136751021
O         8.26080320140999    5.33562898747752    4.97271180029608
O        10.48881453984809    2.64834509879801    0.03765284613392
O        12.12932887227311    1.10645031544752    0.91300562969029
C         9.15470862504674    5.10967821567920    4.28527440403626
C        10.15879286011579    6.67186958402138    1.87974932187491
H         9.38741511916112    7.25000063963099    2.38329333231768
H        10.94058767917088    7.28900064053665    1.44495620524023
C         9.74497882568172    5.55645345150737    1.12870909196216
H        10.29948812325682    5.25355300117258    0.24096361658997
C         8.72514016456109    4.76377586043720    1.62983053732926
H         8.41740883352867    3.88667146876722    1.07069595128930
H         7.91949359326419    5.22809757748924    2.18774004036985
C         9.54483769796581    1.64158119025903   -0.33876845666641
H         8.91197946286472    1.40436456868132    0.52581923677096
H        10.09006383295179    0.73926573853816   -0.63017463689548
C         8.72409983388765    2.17569666191845   -1.49705059819838
H         8.00831692349921    1.42179869393900   -1.81311890069948
H         9.37670215878471    2.42137134335687   -2.33110248836911
H         8.18704746135823    3.07446221787048   -1.20248369223481
C        13.09530037322047    0.47218276326466    1.73748694556031
H        13.58873809708172    1.21692538897771    2.37157592885533
H        13.83609890452383    0.05187916566241    1.04981783399808
C        12.45990531603534   -0.61822217104721    2.58181497293389
H        13.22795447515348   -1.12329312129198    3.16044139514751
H        11.95895962003805   -1.34012524554491    1.94099109530782
H        11.72781899713493   -0.18560162894961    3.26034577095649
C        12.59809163810683    5.55487828280135    5.42913828074698
H        12.28010738585163    5.87157370063887    6.42683946198291
H        13.69042519390786    5.57651030618917    5.36139126269311
C        10.83404083665212    7.80022608893251    4.89536454893567
C        10.70037639103344    9.05880974573441    4.31463683850810
H        11.24984953608458    9.29084970735290    3.41173126042984
C         9.87679931290757   10.00599681541853    4.89463148590172
H         9.77878074843877   10.98248119985007    4.44273800472325
C         9.17466470569125    9.70214927322752    6.04952146872266
H         8.53033008872557   10.44254309716334    6.50013313361194
C         9.29136544667938    8.44510938672828    6.62127523363960
H         8.73441944161536    8.20290570436980    7.51431603351104
C        10.11178404178530    7.49367226759601    6.04501162974209
H        10.18083455658478    6.50405223433488    6.47845111962375
C        13.21306328893272    7.44540484758360    3.41656202469285
C        13.71262925861711    7.21976453430079    2.14196862992074
H        13.23576738088274    6.49222448123152    1.50073434026860
C        14.83232870683577    7.90977046983007    1.70749593524712
H        15.21935722718268    7.73248243849212    0.71490074974182
C        15.45429124299059    8.82117751939638    2.54312896698816
H        16.32528025310590    9.36122263727012    2.20157659827553
C        14.96481730450396    9.03928232683992    3.82305903095124
H        15.45594436381573    9.74570154572375    4.47676367053615
C        13.85057063766927    8.35219231170715    4.26241630524432
H        13.45834906663179    8.51494075113632    5.25874402575340
C        13.30025998228136    2.83424362945778    4.82347157969057
C        13.25030342508689    1.53962086215764    5.33359981819185
H        12.35651930565033    1.19889600782436    5.83891595773175
C        14.34299870553807    0.70216920171979    5.19730107992223
H        14.30790020787050   -0.29576045727367    5.60999611927629
C        15.47822611298365    1.13977336653497    4.53443461342951
H        16.32970748536264    0.48334830419348    4.43003722309311
C        15.51807556837777    2.41611212475832    3.99408562369450
H        16.39467476316744    2.75143259204691    3.45924515677569
C        14.43318363832378    3.26178711794954    4.13272779136872
H        14.45311384562138    4.24941319155085    3.68802862848134
C        11.05921018665868    3.34160226715111    6.43998906156864
C        11.74128112166247    3.41446994419453    7.65328086358971
H        12.75623900625905    3.79222389633061    7.67519923663084
C        11.12444762517907    2.99405556495948    8.81552746506709
H        11.65046599194091    3.05351920942506    9.75759148934610
C         9.83079607483645    2.49525481759701    8.77215309905916
H         9.35010446008836    2.17122690647923    9.68365113858947
C         9.15850301659558    2.40681994437431    7.56476755192905
H         8.15461474724936    2.01071386269084    7.53197090183147
C         9.76975320643238    2.82889410497606    6.39636091875494
H         9.26078167210929    2.75898303504929    5.44491500096018

