63
CSD_code = BAMVAO | q = 1 | S = 0 | Stoichiometry = C32H27OP2Pt(1+) | MND = 4
Pt        4.50537531707666    5.48539326857657    5.63738455993443
P         5.96953918347776    5.03599854114077    4.01784566913856
P         3.20869048932094    5.41682250798728    8.02766839643546
O         3.00677632353131    6.39724690202238    6.91303799896110
C         4.59099202353032    3.49012915426851    5.91669598156385
C         5.55871395265180    2.70303082880209    5.29160975874183
C         3.67699519556425    2.92595118294732    6.80567963341609
C         7.42192223584220    6.10789293994081    3.89396720068323
C         7.64477043865400    6.94647858540331    2.80638785480782
H         6.95646075212319    6.94676725102016    1.97351499239720
C         4.96956856697756    5.28632430576283    8.48101492134643
C         6.57689141455011    3.33262573846537    4.37874217580054
H         6.69876102356672    2.75804839243435    3.45683626872525
H         7.54924336577937    3.38477137745805    4.87752949382262
C         2.35594258030856    5.20895769617630   10.67868605679764
H         3.02098576597325    4.36088330831012   10.75865515748054
C         9.62979141815210    7.78013686900162    3.87072554660190
H        10.49248034781622    8.42812311616570    3.85770860800286
C         5.58892656808138    1.33627008359307    5.54370341728675
H         6.33255062928053    0.72409710435362    5.05680790194928
C         5.49879423626629    4.19519570727262    9.15801742436850
H         4.86151866653640    3.37424514579360    9.45051352625077
C         2.62927302245969    3.74023464123874    7.51894518191525
H         2.25118309093562    3.19786001394533    8.38720976689218
H         1.77750126188523    3.93639849073289    6.85384996275073
C         1.41435810583724    7.00547249372610    9.37244988289760
H         1.35538093545047    7.53555262343315    8.43250870893345
C         4.67907080327095    0.76534245477112    6.41301423634734
H         4.70563731925710   -0.29545637497005    6.60502959146602
C         2.25544768238584    5.90577383173428    9.48008454185978
C         5.18311252741172    4.94934200861447    2.39515022464966
C         5.79983578173850    6.33971132160379    8.09677214028379
H         5.37516010175338    7.21699672528879    7.61586363984368
C         3.82940558686921    5.25826125481690    2.30409291641101
H         3.29396089881030    5.54716872278550    3.20581451498322
C         8.29190617609631    6.13159278107958    4.98410020193926
H         8.08740194659044    5.49964050004669    5.83937572871402
C         0.66527339884723    7.40574329961818   10.46470650800160
H         0.00883797884667    8.25877770928156   10.38472647175442
C         3.73620971251794    1.55568558839837    7.04332489550374
H         3.02989898778198    1.10738408587599    7.72641711749093
C         1.60573756239155    5.61434114240005   11.76661890869542
H         1.67883616809377    5.07777475612694   12.70039231948492
C         0.76099167763625    6.70942770935187   11.65873564958302
H         0.17695497738617    7.02127415672537   12.51101840174248
C         8.75423510123806    7.77432106533508    2.79690619940283
H         8.93331084578011    8.41910576039668    1.95027453847581
C         6.85305872075373    4.15627640318504    9.44239655194316
H         7.26543635233051    3.30716126229612    9.96529599208925
C         5.89295093236691    4.56664364639613    1.25963469550131
H         6.94493388773813    4.32711898366091    1.33586302877383
C         3.89564292120894    4.81441624219489   -0.04904271093644
H         3.39604602750672    4.76310257118590   -1.00404718791782
C         7.67756137541295    5.20147821241347    9.05872305555212
H         8.73193116863817    5.16543859950215    9.28635260001032
C         3.18688722101649    5.19018950927972    1.08140037155419
H         2.13714304465704    5.42872227668926    1.00648596429819
C         5.24425391471134    4.50208348017039    0.04006971917612
H         5.78944573104141    4.20829844558860   -0.84379161846027
C         7.15193231885496    6.29654650697488    8.38955351434564
H         7.79167158206952    7.11746757553525    8.10214407609500
C         9.39558633926715    6.96236229674449    4.96686863804602
H        10.07480631609743    6.97677721892716    5.80577851542024

