70
CSD_code = BAMVUJ | q = 0 | S = 0 | Stoichiometry = C36H30As2AuI | MND = 3
I        -1.01113517111199    3.30142259040727    5.21805258151384
Au       -2.64644201112810    1.53767560502849    4.29356850938784
As        0.52269042374768    0.55584985060545    3.44286129187771
C         1.03332970938260   -1.00001363525661    2.36260269574996
C         1.47536600059897   -0.71270770277625    1.07486176498124
H         1.50520863912641    0.32661729495871    0.75360270542606
C         1.88050805799068   -1.71887448145679    0.21812284548327
H         2.22968609559386   -1.47912043268374   -0.77693166889250
C         1.83545966751995   -3.03832701668690    0.63844705080055
H         2.14655303128116   -3.83062992981666   -0.02721897265129
C         1.39316795637270   -3.33770099834971    1.91514019287232
H         1.36105090273065   -4.36620923079421    2.24815667610870
C         0.99695373180135   -2.32430151367056    2.77123496068626
H         0.65946347392797   -2.57398860877036    3.77112348009180
C         2.33047810770266    0.96238459760544    4.05398616545883
C         2.74634114380711    2.28656336981635    4.11034136944622
H         2.05319358561150    3.07243644374883    3.83111470145936
C         4.02515828818806    2.60074770706205    4.53821361097731
H         4.33844585030150    3.63358081908680    4.58637263606304
C         4.89966353183093    1.59256659262484    4.90553606455414
H         5.89895484941610    1.83549697536431    5.23756592661039
C         4.49299871415039    0.26924125549819    4.84774808451617
H         5.17401657489738   -0.52057859596677    5.13412530771222
C         3.21487089462616   -0.04243850581743    4.42397595084938
H         2.90005634770518   -1.07984179610247    4.38018855952620
C        -0.12542804660742   -0.36960292119411    5.03109615435892
C        -1.22299887864818   -1.22371307126317    4.93945005350512
H        -1.66268296061028   -1.43193233612857    3.95804742936981
C        -1.73948534009200   -1.83940951387910    6.06668913224673
H        -2.57238566762419   -2.52427716411460    5.97912559788367
C        -1.18428319931810   -1.58247855145192    7.30971600008409
H        -1.59239651631165   -2.05753397209534    8.19006494397956
C        -0.11121317699991   -0.71487141022120    7.41740291791334
H         0.31769299818776   -0.50129708652871    8.38579772038201
C         0.41375585004774   -0.11607077818556    6.28571676159912
H         1.24555525682378    0.57203851826797    6.37752296743867
As       -4.12961577149341   -0.02965166665203    3.35642137263505
C        -4.75450074382174   -1.50221841730841    4.42674911376584
C        -5.38701146486556   -1.17909776896669    5.62490072103799
H        -5.53248915260366   -0.13023682628535    5.87807522474171
C        -5.82025165381657   -2.17734644462517    6.47767149478793
H        -6.31272343025338   -1.92271166227119    7.40471110126028
C        -5.61454475463440   -3.50675407549435    6.14151518979790
H        -5.95066398631461   -4.28842127761411    6.80637629956668
C        -4.97055391469880   -3.83454619562014    4.95972188418253
H        -4.80074490467816   -4.87117327005091    4.70614445342221
C        -4.53502048243287   -2.83528584866834    4.10487833564758
H        -4.01105056135002   -3.08937918764628    3.18759863628763
C        -5.77147705846757    0.83989616267554    2.83631130346536
C        -5.65499408814412    2.11856529467734    2.30061424563327
H        -4.66753512865280    2.57376476525449    2.23249107972845
C        -6.77737675709786    2.80031835068920    1.86832717061274
H        -6.68176788170633    3.79256516202004    1.45288754493676
C        -8.02557813507889    2.20796471975485    1.97786467825947
H        -8.90491893638542    2.73926446619219    1.64570200875838
C        -8.14924664431820    0.93891525257870    2.51860854570351
H        -9.12422528623484    0.48168098418643    2.60823808428473
C        -7.02484934616816    0.25374140011860    2.94597367347134
H        -7.12201356900069   -0.73817122365563    3.37876892899621
C        -3.59488837119595   -0.81636449789972    1.67713035055490
C        -2.32178598874700   -0.57356739688917    1.17792237128328
H        -1.63808502554720    0.06261600268733    1.74409183030974
C        -1.92685804261537   -1.12888665104495   -0.02722297891037
H        -0.93057290735889   -0.94675812849508   -0.40132476054755
C        -2.81073010192688   -1.91945601557780   -0.74218491146244
H        -2.50413440074648   -2.35681752958947   -1.68055433580582
C        -4.09164106483192   -2.14615443075043   -0.26138217822023
H        -4.78282564087092   -2.75360373061213   -0.82796029895220
C        -4.48478701829667   -1.59527655468663    0.94455981641366
H        -5.48910650052014   -1.76291612725697    1.32455183494918

