58
CSD_code = BAMVUI | q = 0 | S = 0 | Stoichiometry = C19H32NiO4P2 | MND = 4
Ni        1.56560687716938    7.10060289990949    2.89246781332800
P         2.42726685750546    5.12046143788079    3.02711074077684
P         0.57301079240773    9.02078692396515    3.24600636789846
O         1.82777937714104    4.47679867997529    4.40456883300774
O        -0.46164730245880    8.63941403111343    4.52943796852575
O         2.40404785072867    7.58953577419960    1.18858521751993
O         1.85536382905181    9.73140447295709    1.42961092784884
C         0.69721775027779    6.57732184754482    4.46062948560507
C         0.92081474172191    5.32321756337706    5.02698656640623
C         0.26267868255336    4.91320705435190    6.17543634897335
H         0.45675696721530    3.93325493971904    6.58192828140268
C        -0.63838516970111    5.77796610970625    6.77506423886805
H        -1.15376115036928    5.47037954582562    7.67199222184711
C        -0.88725926567711    7.02883090657680    6.23912003050176
H        -1.58714038069563    7.70600155243044    6.70327638047145
C        -0.22369044080186    7.42526963292031    5.08333225812362
C         1.66829032398787    4.02443155322554    1.73728390571135
H         1.71676208434850    2.98011841842183    2.06569188456918
C         0.20967070455650    4.47176026452363    1.64474747922660
H        -0.30639436691920    3.97243712654528    0.82614301301420
H         0.17194691375027    5.55711138772051    1.47038280203826
H        -0.32096178425594    4.25651939233178    2.57206975630820
C         2.38623379952307    4.21887029022689    0.40859619537497
H         1.84443472085610    3.71912483899314   -0.39311238333121
H         3.39585460859294    3.81480866581762    0.44052612091619
H         2.44442802863791    5.28170243032231    0.17892183062807
C         4.20392774665019    4.62048769270343    3.17390990138223
H         4.67929764675375    4.87161189418664    2.22064760106744
C         4.81201741600420    5.48492577158464    4.27540062981643
H         5.88331334478775    5.31160241386299    4.36075455485333
H         4.34695645663231    5.25418551272510    5.23282551399143
H         4.64544925979607    6.54059442037209    4.05831595043152
C         4.35821524610313    3.13428176404159    3.46787798645336
H         5.40392463379735    2.90002878777850    3.66175155682736
H         4.02371270768873    2.52789971776029    2.62962951461712
H         3.77683348109714    2.86527659382447    4.34673153167127
C        -0.73299227888616    9.90577586256460    2.26005174502795
H        -0.21699330068904   10.49805237007253    1.50369965523616
C        -1.54358354542335    8.80396642746970    1.58020693855823
H        -2.30429395500015    9.22544248851768    0.92496898426325
H        -2.03479637922852    8.18366522552343    2.32969880403113
H        -0.88625487599007    8.16952191257365    0.98415786768002
C        -1.62161588669278   10.81598044172792    3.09472126851081
H        -2.43129231758657   11.19742727370165    2.47340942676362
H        -1.05863472437376   11.66479028311815    3.47378474541698
H        -2.05523269459536   10.27394314450847    3.93054355446532
C         1.68880086392372   10.23009975941919    4.13340718056233
H         1.87872296350223   11.04660472694700    3.43332536101232
C         1.11863401964831   10.77198960354529    5.43665888914069
H         1.81063638351974   11.49966858264999    5.85925962253871
H         0.98320916865693    9.97033690103160    6.15965684286281
H         0.15932320801405   11.25668853798398    5.28352099844536
C         2.98739826592837    9.46671105452028    4.39968729184471
H         3.73380999235481   10.10805489622229    4.86706332663421
H         3.39906027201833    9.08806043697363    3.46185839530365
H         2.79115516791477    8.62139007028328    5.06617228482798
C         2.36149008619515    8.78201563822828    0.82860157703069
H         2.84497657833027    8.99648205299858   -0.15330378682638

