67
CSD_code = BAMVIW | q = 0 | S = 0 | Stoichiometry = C33H30OP2Pt | MND = 4
Pt        2.14827864463437    7.88511745832503    9.95547239116084
P         2.93383889903527    5.81138323741007   10.31922135233104
P         0.97358090467313    9.61285580481337    9.13533642780963
O         1.90822771496927    8.50845571510289   11.93142290301616
C         2.31394869160022    7.36162760731571    7.99087183536089
C         1.81541875367764    8.19434212131132    6.97597394735197
C         2.84971374822350    6.12197827173251    7.61295663584889
C         1.81921324386568    7.78226625195465    5.65099576870600
H         1.42518973484714    8.43631600082627    4.88471443318799
C         2.84491478475108    5.71817073892272    6.28450795579395
H         3.25505633575795    4.75378923296096    6.01600791115656
C         1.50250205183087    4.74864728495948   10.66644981310216
C         4.26218142545940    5.24658129496056   11.42222947882496
C        -0.79239208662934    9.19023043855593    9.22739494952373
C         3.48798226513118    5.23530003990367    8.65294669650100
H         4.57820886955545    5.33317183438486    8.59795621048606
H         3.23938506078832    4.18156361470055    8.49617532287435
C         0.29771797557211    5.38566547933427   10.94862355279976
H         0.27484561428228    6.47325024486177   10.99361534119741
C         1.30664732787862    9.57430569456339    7.32101027035543
H         0.42027201998462    9.83737788975558    6.73577605145078
H         2.09004932957718   10.31259691897793    7.11171175176991
C        -1.15153205855935    7.90261125212386    8.83174327490043
H        -0.38575233745193    7.22684741406786    8.46788733358891
C         5.51363270515897    5.82648122490073   11.22475647117816
H         5.64083129133683    6.54541734839728   10.42409186003835
C         1.04864468881720   11.34184648844725    9.66797713476191
C         1.55414846776966    3.35911895897947   10.61646652119481
H         2.48899768629324    2.85894873010785   10.39978161931794
C        -1.76436140821503   10.05679220629194    9.71079819071496
H        -1.48915082527503   11.05099452095750   10.03326947087777
C         2.32129724995446    6.54068040948384    5.30422470401278
H         2.31303574823467    6.22002191293559    4.27286554745147
C         6.38211311941451    4.61126386700797   13.09662950165947
H         7.20648110707028    4.35952685728819   13.74736512424976
C         6.57068670904772    5.50472644554528   12.05336962090258
H         7.53976499322633    5.95509459914257   11.89487294160760
C         4.07100208189291    4.37422552412231   12.48666887316142
H         3.09378241231562    3.95078392359700   12.67125729958369
C        -0.84562038945170    4.64181123527380   11.17664254520066
H        -1.77867207898866    5.14119944651234   11.39261829571802
C         0.74839675066811   12.41422113689924    8.83464869995408
H         0.45733974783261   12.24059563775782    7.80788680637647
C         1.42009443552915   11.56315430515148   10.99159325357693
H         1.65496140748582   10.70645349554392   11.61231840073499
C        -2.46914519654870    7.49456364102056    8.90735229688082
H        -2.74160161972871    6.49513644029355    8.60037012860023
C        -3.43779403026308    8.36513569402339    9.38361073610581
H        -4.46784905570058    8.04589391202053    9.44689157604384
C         0.40911748777389    2.61908381178259   10.85017734219589
H         0.44971981678135    1.53984145950660   10.81507972285446
C        -0.78950371290398    3.25814175550493   11.12757822680548
H        -1.68021197347556    2.67368664520233   11.30639727341392
C         5.13306699301770    4.05442554453485   13.31456198864177
H         4.98282109815281    3.37170052877819   14.13829569627661
C         0.81872284364832   13.70429678272238    9.32964079038832
H         0.58678746831131   14.54105372554068    8.68628468169921
C         1.18435743123396   13.92522368805823   10.64839856284463
H         1.23705275269430   14.93557865241035   11.02759342034800
C        -3.08346222459380    9.64217242044644    9.78447607810923
H        -3.83724523345303   10.31864373643242   10.16064154548114
C         2.41749226770671    7.79015497965075   12.98194313571513
H         2.11651250949606    6.72065012256518   12.97351289967891
H         2.04030923937589    8.22166376319623   13.92518106428933
H         3.52277931603835    7.81291817755106   13.03195453745735
C         1.48385185260325   12.85631730386081   11.47851915366360
H         1.77021916156423   13.03390709200452   12.50473465124625

