76
CSD_code = BAMWET | q = 0 | S = 0 | Stoichiometry = C24H40BN7O3Zn | MND = 5
Zn        2.21122327788715    9.52135048790088    5.50386498404503
B         0.89073088590364    8.81633737153073    7.88185846488675
H         0.33102877881098    8.52449295962756    8.87591247883453
N         2.63163282316558   10.44771723868633    3.28849120468427
N         0.73428419048964    8.18872531447517    5.44930941231042
N         0.18107114738495    8.18357029441108    6.67889467843098
N         3.20365802671459    8.50108725310415    6.90837425124833
N         2.33465173886917    8.29268661628098    7.91907555923302
N         1.68791739594380   10.94211955510427    6.79344878405880
N         0.93570935168882   10.34242470264959    7.73806434996392
O         3.47444386093947    9.82036813506460    3.97192227186034
O         2.90740129083352   10.87305661140725    2.20631013549787
O         1.51357699084817   10.59753984700962    3.79490217615098
C        -0.24919526534959    8.32930264791949    2.36211779796678
H         0.17469125770534    9.26784305355167    2.70397401052710
H        -1.33185915032739    8.40232264027913    2.44286557120899
H         0.01213351819001    8.18586181859579    1.31631546481544
C         1.76630859519245    6.94295848296398    2.99213338653950
H         2.33905167395065    7.79801260162727    3.33442943323822
H         1.97896462838702    6.79056326722822    1.93648725167525
H         2.10502698410838    6.06860428751008    3.54446175809236
C        -0.46302149506389    5.87719743239890    2.75830448692763
H        -1.54127496202990    6.00977644937541    2.78662179734429
H        -0.19604101934175    5.03702389050877    3.39558661108797
H        -0.18085425596690    5.63672484351294    1.73588271309414
C         0.26451651028463    7.15262749331244    3.20259108655159
C        -0.02410464086835    7.43012632633415    4.65321163528141
C        -1.10264607706712    6.94506830640947    5.39504935063816
H        -1.89886738931096    6.31457620781069    5.05934680929268
C        -0.93748220144003    7.44157072346213    6.67352815151095
C        -1.81200126986937    7.22745622508817    7.85578950255016
H        -2.15199401014205    8.17882407886363    8.25960630053399
H        -1.27812844757576    6.69749069955516    8.64246222902345
H        -2.67754867977504    6.63973933546328    7.56245882541950
C         6.74888918941994    7.23557164313810    7.07167238438843
H         6.49766550630213    6.19464956489097    7.26110397477238
H         6.99408670362140    7.71717034135142    8.01537709015862
H         7.63206344016975    7.26162251367780    6.43759433213715
C         6.00350792731556    9.41172604668941    6.10616794676633
H         5.23513849655763    9.91800853818657    5.53257593918454
H         6.92998401365488    9.43885218196277    5.53788000383502
H         6.15457958975904    9.94285189265944    7.04374603771885
C         5.29211891159534    7.25195586095232    5.04611746113694
H         4.93812472384862    6.23895152090907    5.22623582546598
H         6.19202322443458    7.20307386023686    4.43794232484922
H         4.53522233342391    7.79822261419992    4.49426773368408
C         5.59419364907385    7.95932638075928    6.37114132306190
C         4.36705304398679    7.93763366998958    7.24049743387977
C         4.23442354460109    7.35065112950478    8.50044087362642
H         4.97434072438633    6.81724554691570    9.05907346177766
C         2.93406979009171    7.59604397745276    8.89783145543484
C         2.27616770336286    7.18270926876865   10.16496339262264
H         1.93394946717490    8.05146640235187   10.72397631875780
H         2.98516164087634    6.62958313467797   10.77494966985124
H         1.41535988071574    6.54807117474557    9.96336094068007
C         3.78124561685511   12.76655150274358    5.82325783241617
H         3.72345233946269   11.82938050352193    5.28076372200160
H         4.37334019913876   12.60004202991926    6.72085238032583
H         4.29629462376352   13.49136634878775    5.19709865148119
C         1.56760090232506   13.59779889022797    4.93786954405944
H         1.35031963023603   12.69326857983216    4.37909203295779
H         2.11203797473898   14.28563510213247    4.29519041691225
H         0.62044729164459   14.05646474815596    5.21434615646001
C         2.56160691221126   14.57633490103721    7.00519576008677
H         1.60194502986874   15.04521198240756    7.20558049520557
H         3.16819181364585   15.28037835436346    6.44028855049422
H         3.05876262982205   14.37615385369967    7.95179812013325
C         2.38980890743080   13.28502861000203    6.19516408496249
C         1.65364339486187   12.25906106571407    7.01373377424183
C         0.83835000797732   12.50466909947923    8.11999870333816
H         0.59377854124271   13.44959695032345    8.55759335730127
C         0.40367223508647   11.26695919520819    8.55299452099750
C        -0.49141825846775   10.96434093780305    9.70000521691428
H        -1.36043531699121   10.39844387751538    9.37095092756018
H        -0.82662742002686   11.89434069138085   10.15095473894445
H         0.02945537764069   10.37663831270012   10.45370216488512

