72
CSD_code = BAMYAR | q = 0 | S = 0 | Stoichiometry = C33H34NiO2P2 | MND = 4
Ni        4.33174001738476    6.08060516865399    4.44537315378053
P         4.14740973002070    4.82107861314268    2.71349259103361
P         6.33206337338948    5.17686459738644    4.72005339586226
O         4.51468619747602    6.85928609373822    6.15224215760034
O         3.69678982072593    8.38294706633574    7.53174008780751
C         2.78284974764897    7.22189220886751    4.32329668196966
C         2.62047348002247    7.98955694565676    5.41144120112346
C         3.65101458034635    7.77310386958768    6.48033049668729
C         1.90348636273216    7.33261979238252    3.10027934836353
H         0.98774519212947    7.87227119441851    3.35180872164002
H         1.61503499777981    6.33782340042047    2.74509005147326
C         2.63987749421734    8.07499370083959    1.98496324944003
H         2.04320897295900    8.09811671938494    1.07505154951747
H         3.58693275998645    7.57758517832377    1.76526494558859
H         2.85514253094340    9.09556849974907    2.29335737778708
C         1.53469346642793    8.99389163817277    5.68493145029151
H         1.27674724360800    9.55484879357733    4.78423044336056
H         1.93007565034225    9.68761438489654    6.43081646930798
C         0.29334973490479    8.31008197567565    6.25706546552488
H        -0.47588292597116    9.04590047667904    6.48399546328662
H         0.55344048747017    7.78672275307112    7.17378551881801
H        -0.11164986380567    7.58702776554303    5.55105477190726
C         5.85242557425901    4.29778207620113    2.18310613806965
H         5.78571856659164    3.48497171088366    1.45330611073260
H         6.32832225127915    5.15822138375573    1.70105591292863
C         6.65660220184267    3.89612786067186    3.41406361653922
H         7.72254321107009    3.82272494786859    3.18335527841260
H         6.30411012841619    2.93141802175798    3.79278008084769
C         3.56432698893180    3.28215312278903    3.49385550177262
C         3.22098504861311    3.34559728371460    4.84132472860009
H         3.26782055735202    4.31057196797117    5.36191322036357
C         2.81506748106385    2.20544046234316    5.51078620823301
H         2.55124032429030    2.25763930220298    6.55636783555128
C         2.74767151560705    0.99821465915157    4.83409431245181
H         2.42966644766410    0.10588277524541    5.35266848897345
C         3.08280006356564    0.93144738401059    3.49010498980337
H         3.02380587308488   -0.01113452549089    2.96540144722695
C         3.49135681392831    2.06849871947896    2.81752615912959
H         3.74494175200622    2.01855392868466    1.76698762087697
C         3.26311756866634    4.81092224230507    1.12115143383889
C         1.96025204224503    4.32513983722157    1.05232967039733
H         1.49673658202923    3.91187105204749    1.93824865766151
C         1.26388270211228    4.36189475883309   -0.14153509216083
H         0.25538338454053    3.97796265972978   -0.18696256910720
C         1.85599720846426    4.89340621951272   -1.27556601083867
H         1.31146624955368    4.92219990134721   -2.20750457617073
C         3.14569746188963    5.39435135526363   -1.21032075890026
H         3.60704116852090    5.81719208409630   -2.09076989375330
C         3.84413854045136    5.36087499658702   -0.01723908708889
H         4.84446357371892    5.76799327851049    0.02880237092749
C         7.36032020348432    6.53915518045551    4.07260124020393
C         8.74985519535754    6.48644012194803    4.05964668592644
H         9.26063196614586    5.63140012466477    4.48195104693366
C         9.47212404685233    7.53514647288148    3.52017856509300
H        10.55185598572969    7.49655625411077    3.51183042579588
C         8.81552848338571    8.63725105561861    2.99442222703999
H         9.38582363685931    9.45347215247121    2.57583735099311
C         7.43153314108318    8.69881142839015    3.01460331728027
H         6.92093002942667    9.56344477131140    2.61680790300259
C         6.70607562373032    7.65236363105897    3.55406507912733
H         5.60968067200883    7.70071278703012    3.60014464211794
C         7.29318323777577    4.65530929047033    6.16572563881710
C         8.04821483891418    3.49059406235039    6.23715003514011
H         8.09596127794538    2.81100604533853    5.39809676144367
C         8.74482862374087    3.19532968746692    7.39658545858908
H         9.33471520879944    2.29115170797561    7.45069330645545
C         8.68690049040882    4.05054287975468    8.48441077472120
H         9.23432821990797    3.81266621146220    9.38482435759303
C         7.91970940272847    5.20352548737118    8.42122329289096
H         7.86308449372262    5.86413720239379    9.27346947040785
C         7.22023801009040    5.50498876509086    7.26853722350157
H         6.59286687941015    6.38437437716831    7.21029880943855

