70
CSD_code = BAMYEU | q = 1 | S = 0 | Stoichiometry = C33H27N9Re(1+) | MND = 6
Re       -0.00316773927604    3.71858407373005   -0.05831380865163
N        -1.43499565876160    2.55258141265484   -1.15038837634638
N        -1.03673743811777    1.13121099407361    0.63676863986924
N        -0.15300812342781    2.01927499283204    0.94530574731401
N        -0.29581382452147    5.54145948541845   -1.15111567265628
N        -1.73155077449656    5.90559293177977    0.63180974178755
N        -1.40267677655447    4.69712003872015    0.94183026057357
N         1.72341039717147    3.05997548735257   -1.14808424925187
N         2.75390919779050    4.12125012074699    0.63647723048981
N         1.54250785383757    4.44148206369725    0.94423011561049
C        -2.04886767170108    2.79722556439205   -2.30775143559850
H        -1.78924497456356    3.72497262636546   -2.80248124692336
C        -2.97685445622495    1.93900315211164   -2.85835735961300
H        -3.44776100817346    2.18618761746397   -3.79512490655952
C        -3.29945722536586    0.76221235784949   -2.17948483453171
H        -4.03172885572974    0.08321012700386   -2.58648055750685
C        -2.66898921456253    0.48385086581780   -0.98982783007829
H        -2.86593118928545   -0.40722044752438   -0.41847589516356
C        -1.72420858348045    1.39412220744381   -0.49629800484888
C         0.59419253926505    1.66650177195331    2.09632308268523
C         1.94570400612747    1.35382244419678    1.98099332388351
H         2.41382807640572    1.33309412271541    1.00822584550982
C         2.67375440482796    1.02988487808970    3.11157013439250
H         3.71989960775902    0.78315722680850    3.01742961745834
C         2.06254873870722    1.01599724127288    4.35503373648128
H         2.63631440408403    0.76922892607205    5.23456949825114
C         0.71120856101682    1.30199992653048    4.46349053454141
H         0.22626674851996    1.27383944828300    5.42670646012494
C        -0.02996586630254    1.61350657019542    3.33874027076724
H        -1.08402279945581    1.82588999059051    3.41095761955260
C         0.22590349170232    5.95135299425597   -2.30697937137914
H         0.90214273538728    5.26363323834272   -2.79948316526336
C        -0.05356017194339    7.18361649711346   -2.85862276952625
H         0.39846124917458    7.46843000160659   -3.79404488158954
C        -0.91492470821875    8.05015458423309   -2.18268011555081
H        -1.13725034427662    9.02334313953670   -2.59059848748620
C        -1.47421231562417    7.64272310366545   -0.99462239618503
H        -2.15023382778134    8.25780127907509   -0.42550930795503
C        -1.15765634215976    6.37005212527390   -0.49980985233426
C        -2.08431050465510    4.22507118801331    2.09100728985355
C        -1.81657093765296    4.78652034021591    3.33558020189836
H        -1.10250214999863    5.59006410784348    3.41136287446829
C        -2.45972938841625    4.29897694275093    4.45815244366491
H        -2.24072413375868    4.72884578538279    5.42305335499738
C        -3.38687396586775    3.27557168262070    4.34544019554094
H        -3.88943947249574    2.90072727190368    5.22329613935559
C        -3.68150976923817    2.74472577044115    3.09991947303843
H        -4.42096385480730    1.96505780747567    3.00250814013162
C        -3.03457372301952    3.21501363428572    1.97141479971364
H        -3.28719483723680    2.82429927942534    0.99702522269716
C         1.81946050472879    2.40271532726065   -2.30352130633124
H         0.88656830642152    2.16115710763218   -2.79772469546157
C         3.02718027718401    2.02751330532092   -2.85260081259368
H         3.04932135302327    1.49330049540831   -3.78776331663129
C         4.20719823218903    2.33953649655832   -2.17437084668836
H         5.16174739352867    2.04465476874015   -2.58032174397486
C         4.13204833167447    3.02820599450384   -0.98678427525536
H         5.00180844385981    3.30572511895200   -0.41606770449088
C         2.87088182268956    3.39154180078914   -0.49467655954878
C         1.47309635645739    5.26791559022250    2.09315948474937
C         1.82765305281209    4.75652981094979    3.33765022505882
H         2.16883158958114    3.73710939898556    3.41327222455755
C         1.72580670065799    5.55728063173900    4.46010807789123
H         1.99023318381600    5.15348957043916    5.42489415201453
C         1.29983046804987    6.87088029614654    4.34741020999281
H         1.22563098976887    7.49352956431715    5.22518278215819
C         0.98519642589687    7.39036725968600    3.10197735882224
H         0.67713054111955    8.41981495941137    3.00453009868289
C         1.07004556025483    6.59489095979599    1.97361591042353
H         0.85619108166238    7.00834255104183    0.99934326697427

