35
CSD_code = BAMZAR | q = 1 | S = 0 | Stoichiometry = C8H20BrN4OZn(1+) | MND = 5
Br        6.43599718026939    4.94296112154676    8.89480725634728
Zn        6.62752652812885    5.35058174100501    6.65064383141646
O         6.00376668861299    8.15782689325924    7.70928177622562
N         6.55363534410215    7.55750933309887    6.54457347066202
N         4.75500002903568    5.59493869251666    5.57013476101046
N         6.91244724737718    3.81124130259578    5.12505355206436
N         8.70361433082094    5.78657811089994    6.08878496904438
C         5.64011455255866    7.89215716094191    5.44991047942310
C         4.38985303609966    7.01920798713108    5.55305249877112
C         4.95608053115320    5.01340164171407    4.23877784598399
C         5.65846981147237    3.66133548451545    4.37570474660841
C         8.05062209055358    4.23347835024503    4.30079541509621
C         9.18520174077079    4.71916989798512    5.20416556857192
C         8.73124560570504    7.12394592552049    5.48192601170833
C         7.90859796373467    8.08959189791093    6.33294254539743
H         6.11405749610405    7.54702578958912    8.46055285607114
H         5.35296914038067    8.94642802914629    5.51462475067400
H         6.15577245646449    7.72085263567813    4.50472620027589
H         3.99523728525987    5.08255990685713    6.01663726306311
H         3.71047177867678    7.24880851397640    4.72612267607410
H         3.88740652502894    7.25605882230228    6.49317080515238
H         7.15034278296739    2.91072376283638    5.53708950319538
H         4.00853123987503    4.87704382696160    3.70682533378706
H         5.57544057805268    5.69596224073249    3.65453155773656
H         9.30156337911941    5.81515466698675    6.91395054383460
H         5.83488697294837    3.23529412509011    3.38231547588828
H         5.00851604463957    2.98072442935194    4.93064394329203
H         8.41488931634867    3.41904989637885    3.66586806509939
H         7.72276911029915    5.04702086136805    3.65178949553174
H        10.02704600294397    5.05478882596845    4.58910500867694
H         9.52417788109125    3.88703615223030    5.82564222890421
H         9.75388972683719    7.50587920035984    5.39162402071325
H         8.30802839978198    7.05605743615161    4.47798318101608
H         7.87904165129437    9.08077278346984    5.86980859793007
H         8.36698955149102    8.18943255367801    7.32043376475263

