27
CSD_code = BANDID | q = 0 | S = 0 | Stoichiometry = C12H10N2PtS2 | MND = 4
Pt        1.76312308097268    2.15294389028691    7.45498554624604
S         1.30705700228322    3.78897702386072    5.94157261262002
N         1.38256516795463    0.61010215250911    6.21102022717461
C         1.57055874019637    5.25771104623657    6.81462406618581
C         1.54772657382041   -0.62267969335437    6.76475970723336
C         1.30430729697303   -1.77942906028082    6.01459258551579
C         0.89661800641797   -1.67671763741470    4.70478650399188
C         0.73642006246523   -0.40421291887259    4.15247510654371
C         0.98825727325738    0.69779378273547    4.93646728178424
H         1.40006555211533    6.15822813533051    6.24611255583944
H         1.43531448537836   -2.74943932960058    6.46528475905820
H         0.70438839820769   -2.56046632313634    4.11677440800243
H         0.42025698379124   -0.27844116784570    3.13016584216997
H         0.87310913874885    1.69771203615499    4.54004628715015
C         1.95540844529356    5.25771027477509    8.09542358230789
S         2.21883268694150    3.78897806004034    8.96850115637116
C         1.97824066626833   -0.62268053496301    8.14529431017496
N         2.14341695308631    0.61010086004686    8.69903029342589
C         2.53772397051176    0.69779239280442    9.97358318396213
C         2.78954702456244   -0.40421529536331   10.75757932987505
C         2.62933102142530   -1.67671985217811   10.20527268966022
C         2.22164136609116   -1.77943070930226    8.89546661375363
H         2.09062236341682   -2.74944064212641    8.44477714214588
H         2.82154785085207   -2.56046895810387   10.79328813290819
H         3.10571657522121   -0.27844398736435   11.77988671525002
H         2.65289271568177    1.69771122462754   10.36999760847463
H         2.12591059806527    6.15822523049788    8.66393175217484

