48
CSD_code = BANFOM | q = 0 | S = 0 | Stoichiometry = C21H18MnN5O3 | MND = 6
Mn        3.64094611045693    1.48959223358024    3.35487539195723
N         3.23287569884449   -0.05965635800693    2.02332423966778
N         4.55731764653284    0.00288918012087    4.22285121982913
N         1.99895480503672    1.11879682218795    4.24770684814686
N         1.23357653165638    0.23217540884430    4.28495368090748
N         0.42140396682256   -0.55519887243851    4.39264175947137
O         3.15530270990460    2.54472542545819    2.03499967456328
O         4.10292694068118    2.59702710418637    4.67274738128745
O         5.81423712196030    1.94862251158580    2.46541892531248
H         6.53196463462062    1.52776947661326    2.95387279630769
C         5.04823447664872    2.57921297684791    5.53366825515575
C         5.41518372031740    3.75882857495243    6.23255580638566
H         4.86952278895915    4.66163533275376    6.00111048221071
C         6.41424283546793    3.74912427794015    7.16447633549599
H         6.67432233917049    4.65931392674161    7.68445609835926
C         7.10589141304637    2.56310088942460    7.46282015001536
H         7.88378583367425    2.57308789523112    8.21070615471926
C         6.78762614139529    1.40680598332014    6.81040081980069
H         7.31024543644479    0.48859938379655    7.04060703319976
C         5.77216474860300    1.36868086770649    5.82655329956045
C         5.48504175110257    0.16842828978238    5.15344792043143
H         6.10579786096926   -0.68515041035862    5.41928539836469
C         2.35384989124282    2.50488856931629    1.02638189504886
C         1.87363095618784    3.69327756183813    0.43357389529385
H         2.18246996173878    4.63334704935356    0.86705172819181
C         1.02859395899180    3.65162898999263   -0.64469274598150
H         0.66870749762465    4.57257852747963   -1.07919410044778
C         0.62515206577716    2.42712512382148   -1.19105196441220
H        -0.03677245127904    2.41368500926326   -2.04318029545113
C         1.06681886203599    1.25517896112325   -0.63769674864140
H         0.76165323154789    0.30548783540872   -1.05364515333233
C         1.93140425117477    1.25182146931861    0.47399797395424
C         2.35895817985467    0.03475858650850    1.05036808777000
H         1.90741640651304   -0.87063568062966    0.64765909905057
C         3.66315993221168   -1.29925249549883    2.46603931762047
C         3.50919200314767   -2.51674512347285    1.80036376857247
H         3.07219430307539   -2.55197379293629    0.81467574083823
C         3.92121015703323   -3.69073134572574    2.39793683095046
H         3.78594077680386   -4.62872118532711    1.88162673527772
C         4.48754619072696   -3.67276271800111    3.66502406747376
H         4.77105794843947   -4.59809834223549    4.14237192831651
C         4.69940194152892   -2.47450033909238    4.31808923235122
H         5.12686785420479   -2.48209525594184    5.30888924194474
C         4.33415790807609   -1.27216017152772    3.71260074193846
C         6.18418692425897    3.29049875440148    2.19800625323425
H         7.05205469329022    3.32015315574171    1.53160197555110
H         6.41050951243967    3.83604057035040    3.11867415362584
H         5.33397153103819    3.75839536620081    1.70494867011184

