47
CSD_code = BANKIM | q = 1 | S = 0 | Stoichiometry = C24H16Br2IrN4(1+) | MND = 6
Ir       -1.68868179091519    2.38742753235674   12.82075086503701
Br       -3.45023896504077    0.66803037568292   12.50980758296866
Br        0.11544356639780    0.71260262876406   13.12915481537344
N        -1.58089060884379    2.43954243626771   10.78466297226991
N        -3.17013241388445    3.80908060386815   12.44533016278659
N        -1.79836015357062    2.43446096402205   14.85686479493488
N        -0.24430371650717    3.84606254872984   13.19801663103155
C        -0.80187312649569    1.73363624609039    9.98451444482693
C        -0.92260230473519    1.77135925497070    8.59379332668902
C        -1.88596965752919    2.56188849193367    8.01389804590417
C        -2.73065327773996    3.32171161792194    8.84124070897818
C        -2.53691544595495    3.22522402594628   10.23403784274083
C        -3.38442353881919    3.95365321579106   11.12032041769473
C        -4.41420020759059    4.76685358919265   10.60285681410977
C        -4.57901260796765    4.85111360257558    9.19040140539015
C        -3.77269430762247    4.15954084042228    8.34796675537497
C        -5.23302698374376    5.43753439508729   11.52616784041033
C        -4.99641487010965    5.27497513929806   12.87146171517860
C        -3.95347420162443    4.44831314053902   13.29065898537472
C        -2.55939421107962    1.70809880845550   15.65608038661057
C        -2.43919509012668    1.74655167790804   17.04676410321509
C        -1.49565392551436    2.55997663812955   17.62773447021434
C        -0.67042738503646    3.34191176496758   16.80145743156766
C        -0.86204678255436    3.24277224384396   15.40853041195981
C        -0.03322689222109    3.99360898781941   14.52321285232675
C         0.97602337382618    4.83142972929471   15.04177272372391
C         1.13911245405088    4.91752792234693   16.45433204153736
C         0.35045597904730    4.20483858581029   17.29582792626517
C         1.77744667473895    5.52401658728867   14.11937130121403
C         1.54441601389145    5.35810972833009   12.77387249473293
C         0.52223745416487    4.50644159218842   12.35354557503401
H        -0.05946016903439    1.09976464695660   10.44994495733798
H        -0.26130624496714    1.16554348617985    7.99625584673142
H        -2.00998778795768    2.59981485074713    6.94269677757074
H        -5.37184983674087    5.47526584854415    8.80842301968305
H        -3.90915862853886    4.22090115605339    7.27942198480091
H        -6.03932203733197    6.06165003942886   11.17309206553493
H        -5.60866137675088    5.76704801493372   13.60936691346270
H        -3.76417538069221    4.30161069649937   14.34483304592433
H        -3.28561944595852    1.05631831105465   15.18982887089876
H        -3.08501632059037    1.12367959239010   17.64367755345802
H        -1.37254050501776    2.59924328962238   18.69898764401990
H         1.91641398663322    5.56051005549075   16.83699089631433
H         0.48554882135516    4.26767670446926   18.36448271305347
H         2.56795719372985    6.16755742311971   14.47332602133367
H         2.14355481016961    5.86707172055757   12.03666592344249
H         0.33629987080264    4.35684924810918   11.29919792095770

