43
CSD_code = BANLOR | q = 0 | S = 0 | Stoichiometry = C21H17AsFeO3 | MND = 6
As        2.58184494418022    4.60075566346845    8.10891551400377
Fe        3.36474406111592    6.38697397735825    6.89077087476251
C         4.24157900376504    7.74820787933992    6.21566244297971
O         4.83045028869630    8.63374825925205    5.79461674513135
C         3.22067679998214    5.52441361269313    5.37380159627536
O         3.09369917731070    4.97867816038769    4.37418844057058
C         1.78511154699218    7.13271399462855    6.76536119596049
O         0.75644209867170    7.62756561486308    6.67045432282803
C         2.68598674120360    2.84794214425056    7.27528679153794
C         3.88323956778010    2.52883561820818    6.64087898555189
C         4.05968617219787    1.28901710641583    6.05416805256916
C         3.03632850568741    0.35516835295646    6.09583179725125
C         1.84482471584852    0.66132398878110    6.73095118516466
C         1.66930732521291    1.90122132283745    7.32348221012489
C         0.71851793063997    4.69627452308471    8.62033031258036
C        -0.23506961660869    4.61987178613859    7.60769773792328
C        -1.57880421115248    4.77058056280489    7.89494856660463
C        -1.98072049275594    5.01493802886492    9.19917492101176
C        -1.03859976545533    5.11368281634288   10.20898408975774
C         0.30801401017616    4.95957933156802    9.92161468871599
C         3.44662881432941    4.14860524229684    9.78899356894373
C         3.02035776648875    3.02452877383881   10.49446770003465
C         3.63486339463154    2.67573683108535   11.68335932710814
C         4.68101381695375    3.44336859820286   12.17292259502134
C         5.11292257029750    4.55715050695859   11.47276923816695
C         4.49819434493290    4.90899745659306   10.28146315724185
H         4.71082011797369    5.82454164235710    7.12618826425238
H         3.53508963098972    7.07756494703657    8.18442260738164
H         4.67299721313418    3.27683904605299    6.61142163269720
H         4.99093967361799    1.05040426054382    5.56113144230642
H         3.16790292371787   -0.61128135906014    5.63213794502624
H         1.04746459332429   -0.06738871944784    6.76483420820931
H         0.73275069427415    2.13764949002568    7.81911419113830
H         0.09428857402813    4.43927518828022    6.58461592939604
H        -2.31303031669819    4.70481543771889    7.10487840452861
H        -3.02965958956094    5.13709584226302    9.42514571063306
H        -1.35278913834227    5.31699968957011   11.22265442521515
H         1.05286584815135    5.04782114797775   10.70820387918890
H         2.20074843170670    2.42788522950963   10.10124265079489
H         3.30111365244591    1.80513738041358   12.22975221185724
H         5.16027809796935    3.16913891486128   13.10119806806041
H         5.93033219499211    5.15164271813344   11.85429713862793
H         4.82414788716383    5.77487899051096    9.71456523288655

