61
CSD_code = BANMAF | q = 0 | S = 0 | Stoichiometry = C28H28Cl2NPPd | MND = 4
Pd      -10.22433438420451  -25.12680380202171    2.82507402785399
Cl      -10.24475698120525  -25.60720755444592    5.09656905096488
Cl       -9.17190942631622  -27.42675531301485   -2.04502756035625
P       -11.44475706472869  -23.33742586697660    3.31589274094906
N        -9.05790110771883  -26.82532481424453    2.31865021577236
C       -10.05268511570263  -24.77945787556941    0.85905721275764
C        -9.74252386229870  -25.96706049919223    0.17901451004965
C        -9.53126228993080  -25.95158326719858   -1.18959198735068
C        -9.59785276068232  -24.77001968575948   -1.90947808015976
C        -9.86420881637300  -23.59140029749912   -1.23719954221049
C       -10.08662966322189  -23.59599853442926    0.13127966099169
C        -9.66515819581927  -27.21562635249938    1.02590464766151
C       -11.09229183884469  -27.74162065146456    1.23256892347308
C        -7.66884991857081  -26.40007761439694    2.13107434478942
C        -9.07014075686472  -27.93336308175945    3.27287006261195
C       -12.53694068125773  -23.30252708808931    4.76987519266001
C       -11.97647665496653  -23.09299256733345    6.02765307599531
C       -12.77693013841461  -23.11564152785257    7.15334525475599
C       -14.13761594330748  -23.35117513742447    7.03554522288221
C       -14.69664875495927  -23.56836154112100    5.78762371604884
C       -13.90076189936422  -23.54960538284847    4.65578030496959
C       -10.30804591926469  -21.95741559047269    3.63840631052607
C       -10.71923911609282  -20.73793061168559    4.16905498804395
C        -9.78982875042832  -19.73920290115981    4.39723538315448
C        -8.45079706433894  -19.95419693526392    4.11066666713776
C        -8.03333602099851  -21.17555778252390    3.60615091875336
C        -8.95866954454695  -22.17677358469511    3.37198466708725
C       -12.57556322818910  -22.81742403294328    1.98360630391465
C       -12.84743656065388  -21.50454971582969    1.62770135459621
C       -13.72304024866779  -21.24252267946472    0.58716343117250
C       -14.33162137995194  -22.28275944210767   -0.09433199149413
C       -14.06185132637294  -23.59643263748871    0.25758596528364
C       -13.18237508326061  -23.86091254433487    1.28886133033965
H        -9.43375263312008  -24.77733570447274   -2.97561287307290
H        -9.90125828298599  -22.66248874068117   -1.78772481156441
H       -10.29071127742681  -22.65519306717787    0.63043111819324
H        -9.05151121690595  -27.99166232214497    0.54160271699236
H       -11.61765684156554  -27.73467451184103    0.27966186716390
H       -11.62541989799738  -27.07808473741317    1.93686337666119
H       -11.09924397862434  -28.75805083603954    1.61878477641917
H        -7.03668633550484  -27.25031117351332    1.83871601193069
H        -7.60192522732735  -25.63680450444996    1.35281957852679
H        -7.29031188234373  -25.98808696139956    3.07095255661578
H        -8.53015459814942  -27.63748930554166    4.17240331793512
H       -10.08934266641839  -28.17474945744752    3.57239149657881
H        -8.59022170774030  -28.82206783814723    2.84083740119065
H       -10.91179103890653  -22.93020558348306    6.11783209308557
H       -12.33721649526465  -22.95773238421573    8.12702443433601
H       -14.76096925634281  -23.37213273530788    7.91742388729607
H       -15.75604076382369  -23.75885989978957    5.69407099009041
H       -14.33929421133359  -23.72640492713997    3.68299415351748
H       -11.75953009726554  -20.58366563690680    4.42270542869768
H       -10.10852912733138  -18.79207523149743    4.80768383281473
H        -7.72961907093798  -19.17153417427532    4.29426436846335
H        -6.98648574535914  -21.34593395829491    3.40208979233932
H        -8.64525738034932  -23.15717988791754    2.99068556150070
H       -12.36498882825623  -20.68884194483959    2.14601312110434
H       -13.92790665271158  -20.22005578919442    0.30489447003371
H       -15.01136352560514  -22.07054639800588   -0.90618762832083
H       -14.53058755176046  -24.40819080010706   -0.27880833485586
H       -12.93598321098897  -24.88413457534259    1.56742097269109

