54
CSD_code = BANQIS | q = 0 | S = 0 | Stoichiometry = C17H25CdCl2N5O4 | MND = 5
Cd        4.14240738894280   -4.22506946591215   19.40905343672571
Cl        5.60453652560076   -4.54492469928590   21.26289955810865
Cl        2.11851248071776   -3.76613688394560   20.55150915828403
O         4.32501440162067   -1.63159196235560   19.86107196852726
O         5.32655005133716   -1.19292320926186   21.82559706727090
O         5.14077244380253   -7.38229352232503   19.95452849878212
O         5.06217920856728   -7.76207375270164   22.17454524568842
N         2.96279452791318   -6.30577984561382   18.90279261455814
N         2.43417715573716   -6.99116571630436   19.89024157341198
H         1.90002512702976   -7.83129532002006   19.68324389231372
N         5.90743668231541   -2.77972669951456   18.01822128048200
N         6.66432751093752   -1.81887728738052   18.54811103539381
H         6.62198358321959   -0.90344076944488   18.09892449729967
N         4.06143744248441   -4.61652662870062   17.12173733992840
C         7.12228800072080   -7.05540191851731   23.20998945257165
H         6.95400838031433   -6.04352426001311   22.84860605419234
H         8.18967059801003   -7.25027294992390   23.25907228736443
H         6.69326707747854   -7.15032333208806   24.20373492404214
C         6.46685062710821   -8.04085734439392   22.25744750071818
H         6.89727102065985   -7.96020679254775   21.25515198697351
H         6.55884140115778   -9.07042154833302   22.61805597053745
C         4.56813015835609   -7.36760996742872   21.01549521102120
C         3.10623619923815   -6.93679526956532   21.16021385183373
H         2.59192880971868   -7.56005464674680   21.88999727419800
H         3.09832494277650   -5.89451840707393   21.51390629137078
C         2.63298578774274   -6.46432261570378   17.66896518304480
C         1.57767015188778   -7.44594246612320   17.22090184635500
H         1.98323102939207   -8.45656356430525   17.14755976227782
H         1.16822120404914   -7.16341649569832   16.25655346684304
H         0.75428433026630   -7.45006359543751   17.93475018257093
C         3.36531816007520   -5.67277801271075   16.68881437648163
C         3.37841065515486   -6.02974238204377   15.33288768819316
H         2.84107582323105   -6.89559272325401   14.98470501459394
C         4.12730001816373   -5.28172821168530   14.44695430983564
H         4.16969636001974   -5.55470763791061   13.40266002852893
C         4.82940336234397   -4.18386528159356   14.91026537092644
H         5.43908766572375   -3.60291077122329   14.23817379660370
C         4.77004984796813   -3.87477468753971   16.27254196497108
C         5.49349566567420   -2.71658862353598   16.80457226081175
C         5.72262139200840   -1.52789982870016   15.90504570101009
H         5.48314408077432   -0.60770161922030   16.44197785993163
H         5.08216902005137   -1.57264692160599   15.03029612699130
H         6.76370077897300   -1.47310709019517   15.58409801083666
C         6.70999804894879   -1.76758248402159   19.98754687458961
H         7.41186572666623   -1.00202677015228   20.31597904079165
H         7.02647422101273   -2.74486013296262   20.37180648041364
C         5.31034881799491   -1.52402190830874   20.55799055807552
C         4.08044563382044   -1.21471676780631   22.54889759860770
H         3.90229117035175   -0.19636842799162   22.90597918278825
H         3.27940990371192   -1.51672073229184   21.86786784644647
C         4.20383488604932   -2.20177043234697   23.69566824731022
H         4.46162051564044   -3.18044040290802   23.29766586788065
H         3.25409466791733   -2.26879682224713   24.21730658897285
H         4.97967932864452   -1.88833039116678   24.38892079173383

