67
CSD_code = BANQOZ | q = 0 | S = 0 | Stoichiometry = C26H28FeN10S2 | MND = 6
Fe        7.32246670232828    3.56043927095139    5.26166622291743
S         9.14980534702446    5.89950637690365    8.69714632860107
S         4.84369379086677    0.53034989145995    7.72217223919761
N         7.57463261290361    4.62821103762104    6.82038390230836
N         6.53874412480473    2.15928196627008    6.27706520331996
N         8.25915182775320    4.96562357983828    4.14739361887870
N         9.19040095591065    4.54308146487783    3.26617659055530
N         7.23225149119436    2.43356423908372    3.56902329005323
N         8.34626968337081    2.39354689282699    2.80582849253733
N         9.21968326226844    2.72391599958454    5.53534709287878
N        10.01854167144204    2.67905460903469    4.44765219498579
N         5.66677539228280    4.31037879106933    4.97214950452654
N         5.41678050348528    4.66392452449689    3.71099002982981
C         8.26613964621829    5.14912210139112    7.61477447230366
C         5.81143809195480    1.48867063755080    6.91101009431824
C         9.51495542760780    3.14386480419996    3.18321055706736
H        10.28756554896819    3.00343437583317    2.42022085207234
C         7.25522135009943    7.13006818438271    4.80286518721228
H         6.93628697718004    6.59104478049053    5.68982028205797
H         6.38006922978688    7.39606745026468    4.21046858675760
H         7.76133149088283    8.04622078388479    5.09818359483229
C         8.17231484224125    6.27796953110515    4.00859698838426
C         9.06931839283671    6.70751524952131    3.01062578106252
H         9.22427522353845    7.71461965244304    2.68226748918218
C         9.70822101298699    5.58330885879786    2.55288621114479
C        10.75451753778291    5.42063349273864    1.51143763993326
H        11.66885195155400    4.99928848532749    1.93020116164811
H        10.99107893012775    6.39422574626958    1.09238467263916
H        10.41148910095507    4.77483786214623    0.70235108357431
C         4.95516772138452    1.46334325242579    3.47217055910312
H         4.92042927749741    1.66735535799521    4.53737643397327
H         4.64792256653378    0.43638156105647    3.28996385558062
H         4.25682164740551    2.12593220898928    2.96132085960149
C         6.33030002550467    1.68037469870600    2.96242329181898
C         6.87888382379510    1.14358374625253    1.78073389027311
H         6.38733804081869    0.49339471812969    1.08665874284066
C         8.16535716571994    1.61234476481191    1.70278941041938
C         9.22118696001734    1.37366701231135    0.68575023470900
H         9.53296306839066    2.30385071239390    0.20942966978744
H         8.82918821696633    0.71374891577706   -0.08257696756586
H        10.09665150996965    0.89805605661838    1.12870071214629
C         9.38196547650120    2.13208274685109    7.92142431694796
H         9.68650111284011    2.99719482278959    8.50954198611486
H         9.76021143771966    1.23440747604491    8.40413684669883
H         8.29707741901515    2.11625673081657    7.88304907037303
C         9.91744930961367    2.24605003658343    6.54880043795963
C        11.20597777776091    1.88499257279494    6.09885484169151
H        11.99511774526409    1.47078231389628    6.69177618691640
C        11.24498631388507    2.17214329287479    4.75837295799970
C        12.33523457931813    2.00743138573743    3.76300778991239
H        12.03728813495890    1.33891499748314    2.95470132759156
H        13.20300752000028    1.57959278140329    4.25616525728440
H        12.62570040341196    2.96676266527104    3.33379748659066
C         4.74069373139089    4.49276618924210    5.90406749049423
H         5.01300662914321    4.20334885641442    6.90689779335751
C         3.47277406579949    5.02802835203694    5.62285447599604
C         2.46629637447905    5.21433920548099    6.59431543450521
H         2.66926319733461    4.92985230360642    7.61489281469969
C         1.25826028209115    5.74162943779589    6.22704824783639
H         0.48404308469004    5.88402823767613    6.96637674303553
C         1.00095801023868    6.10425374981988    4.89453989874552
H         0.03788231554812    6.51826043416319    4.63614283640049
C         1.96024376844558    5.93455710856044    3.92856433690207
H         1.77136578045560    6.20908756579481    2.90070965710805
C         3.20675291648987    5.39540860905396    4.27580038676099
C         4.27484129982861    5.17375659489594    3.36961489833255
H         4.16711916933289    5.43106788691731    2.32280642272239

