57
CSD_code = BANSIU | q = 0 | S = 0 | Stoichiometry = C28H22O4PdS2 | MND = 4
Pd        3.12298553984719    8.23922386157574    1.04751234222186
S         2.56614737614618    8.32635607504274    3.26429641021964
S         4.06406114766928    6.16081326435332    1.23083781256444
O         2.33338075940641   10.12788351714187    0.80758119946914
O         1.20938637838247   11.94823035381804    1.32559958186626
C         7.42476876391605    8.73265219289324    1.89627038815153
H         8.36517813858339    8.46277251026459    1.44043333135474
C         5.57008578759010    6.31128882093887    0.27931646258348
C         2.84575097550140    5.29806668631819    0.12663329388363
H         3.06016287897126    5.58230356777947   -0.90332118580056
H         2.99897103586425    4.22838541419825    0.26998926522497
C         0.01790008859362    8.40170163122749    4.14445825619930
H         0.37626272699694    7.63650925597573    4.81637792908476
C         6.69402700942462    5.70908762170527    0.83051576524135
H         6.59808060749083    5.16185901164662    1.75611936075256
C        -1.73534562628109    9.79617539129621    3.29822072597075
H        -2.76586705784129   10.11761451224399    3.31376249507304
C         0.90347269046481    8.98244288277160    3.24533563557447
C        -0.96831975845877    6.67719240304927    1.50589651802442
H        -1.92281531321937    7.03244172670622    1.86326092856254
C         5.64771809476764    7.01853151032126   -0.91436764824732
C         5.92137209683424    8.65024147327003    3.76602555255054
H         5.68944062896753    8.30915996722083    4.76491335659881
C         0.48664443905617    9.97686045867147    2.36855698121328
C         1.41118159999050   10.74873962536804    1.41938966498334
C         6.88169105330166    7.09910934177482   -1.55128264152485
H         6.92681204570085    7.62252212399359   -2.49443302126778
C        -1.30402499182396    8.80411233142300    4.16558265592385
H        -1.99196704079390    8.34960014730710    4.86233938707038
C         0.84617320546092    5.11031139026337    1.63086565293872
H         1.30662803237676    4.24788505287652    2.09140766790119
C         5.00640913531294    9.44030066611671    3.07970743633894
C         1.48706058360940    5.75072677620397    0.57648538898345
C         3.67093734878640    9.75720349879030    3.68728727701824
H         3.22800872293907   10.66211435302598    3.27185464881559
H         3.70791609859392    9.81165803672872    4.77540621179973
C        -0.84273778502431   10.38343650846562    2.42169044513715
H        -1.15026667946922   11.17908316904089    1.75997877913195
C         8.00924515264345    6.52132372202317   -0.99889755250305
H         8.96044680872556    6.60785414436622   -1.50226464810172
C        -0.37965994424110    5.56792123387942    2.08686641303837
H        -0.87332797347540    5.05568670804820    2.89897290382642
C         7.12806380770574    8.30574211212596    3.17862381367288
H         7.83565809135284    7.70066468537804    3.72524393631084
C         0.88971331761289    6.87536622554686   -0.01223032117005
H         1.33755548815477    7.34746694856752   -0.88725659524625
C        -0.33501354251412    7.32953583350095    0.45812671073603
H        -0.80137886846461    8.18457337158966   -0.00849552303923
C         6.51620461012463    9.51461139527177    1.19800414137170
H         6.75386854630034    9.86338219971210    0.20387212234797
C         7.91583556092535    5.82134954050829    0.19435876742245
H         8.78982231391010    5.35720880941340    0.62567979019529
C         5.30730770731249    9.87237429565817    1.77931346525682
H         4.63812686449200   10.55313333310156    1.25183288258980
O         3.54989996075006    8.22473318790550   -0.97075557231722
O         4.41522877788094    7.48252182936115   -2.85488209314271
C         4.44463258325087    7.62765329224098   -1.64381695281797

