48
CSD_code = BANTUH | q = 1 | S = 0 | Stoichiometry = C15H27CuN3O2(1+) | MND = 5
Cu       -0.93670696075010   -2.14637064428286    6.92852567276851
C        -2.41876088011673    0.37558174476608    7.08688914522584
C        -2.20918228175244    1.45323179077535    6.15175089234540
C        -3.32587164361128    2.22957834165076    5.76457732509269
H        -3.18068834931947    3.05812624065292    5.09059003012747
C        -4.58485289182683    1.96311294247497    6.22599445404924
H        -5.41728670387576    2.57578424330166    5.91970791790038
C        -4.79354730214828    0.89226068330309    7.10456766488827
H        -5.78888591622380    0.68586518134334    7.46748056895831
C        -3.74220986564949    0.11763372540266    7.51120442714228
H        -3.88420207202888   -0.70060845435080    8.20189145432644
C        -0.92403663384825    1.67612601551632    5.57022060577608
C         1.38123215206015    0.71020500115927    5.45343117657636
H         1.40911549804792    0.96308300278666    4.39126190323640
H         2.12889911339712    1.31852802019071    5.97415810395015
C         1.69679913421477   -0.78027925343518    5.62963883268328
H         0.85230147769930   -1.34579888783884    5.22762976320587
H         2.58291411180932   -1.02106115603898    5.04314192724498
C         1.89727858412719   -1.16093551487762    7.10350164355611
H         1.54587497533297   -0.34612355121410    7.73883972019657
H         2.96681900543535   -1.30295560007773    7.31448364697521
C        -0.73034686039639    2.68147362823431    4.48580116542886
H         0.30969995150029    2.74559556110597    4.18323132321866
H        -1.03861564838829    3.66351923602631    4.83979378949494
H        -1.33850140143202    2.43526574155904    3.61707209958391
C         1.14443557235595   -2.43723884898641    8.96344446506082
H         0.59869880074748   -3.31461315747675    9.29666048232828
H         0.64404263784491   -1.55939395435232    9.36662250043526
H         2.16372576812730   -2.48584469663761    9.36466622985784
C         1.78136820638016   -3.54809087442758    6.91483618088242
H         2.79034000004692   -3.66603437578909    7.33932604691360
H         1.88707977204962   -3.37134380685669    5.84306366457244
C         1.03531109987893   -4.86932966860360    7.10854944282554
H         0.86925065849537   -5.06865493549590    8.16754167655669
H         1.69398913999983   -5.65596382539561    6.73681382490473
C        -0.28924824719278   -4.98797774057488    6.35885311029707
H        -0.16312871828143   -4.64528564426277    5.32921040182189
H        -0.57645989071442   -6.04717561295441    6.33484924799126
N         0.07706179972926    0.95364074283635    6.00757654318804
H        -0.22678891496305    0.30742565069665    6.77765069124488
N         1.14749586842182   -2.36074505427705    7.50176601119878
N        -1.34789058752235   -4.17957738765610    6.97907430899139
H        -1.45292176383629   -4.44458923442858    7.95491471963558
H        -2.23664112622253   -4.36031816305727    6.52185201705515
O        -1.43804999808436   -0.33855023811361    7.55252449634145
O        -1.59500863181414   -1.69308744784469    4.79253638192103
H        -2.03842807941675   -2.44694086154516    4.39401344647337
H        -2.25207195829431   -0.99724890294456    4.90106885556609

