39
CSD_code = BAPHEF | q = 0 | S = 0 | Stoichiometry = C14H15CuO9 | MND = 5
Cu       -0.03663438033363    1.95206343736883   -0.02519689204592
O         1.77727580052431    2.12937770034274    0.05038929911175
O         2.17165931089205   -0.03538776262054   -0.31478590860440
O         8.04714080303327    2.25168198135980    0.22187651550455
O         0.07375621895141    1.05244153317366   -1.65403460465547
O        -0.08832276156245    2.84968929428500    1.46634690613842
O        -0.20473290828809   -0.20923041232458    0.98478483557368
C         2.55899077323756    1.11692904154481   -0.10756487670013
C         4.00638730314542    1.43063413239307   -0.01461201828083
C         4.92737158648929    0.40141944455868   -0.19039022167077
C         6.27980923671694    0.65859171620581   -0.11452562587794
C         6.73093344031393    1.95209572683865    0.13863321794897
C         5.80894119105121    2.98464739925353    0.31396652869986
C         4.45914086589288    2.72503547428016    0.23655039396263
H         4.56423421526971   -0.59565815186096   -0.38714584620390
H         6.99437548647783   -0.14213495056609   -0.25232197800109
H         6.17924871574312    3.97861431790773    0.50754831231362
H         3.73948322007054    3.51786814781095    0.36589177762726
H         8.58158342312445    1.46009487172111    0.07999740650400
H         0.70386860197950    0.32099497068460   -1.49099645446494
H         0.77415798916349    3.24728823217568    1.61747026999827
H         0.67607310282130   -0.51889084047654    0.70313362561776
O        -1.84696113276357    2.09539718864629   -0.05634139930499
H        -0.89793637022465    0.63860186829727   -1.71409899538186
H        -0.18069036244425   -0.06092010066805    1.93423630138998
C        -2.64428002357290    1.29145264299849   -0.65079715121849
O        -2.31992624922993    0.42805641051923   -1.47851546652171
C        -4.07519880776797    1.47766184179920   -0.29713526517536
C        -5.04703589328108    0.76562954534790   -0.99440692619123
C        -4.45282085942228    2.34584970112488    0.72664043808717
C        -6.37981346935544    0.91746315897820   -0.67357020961662
H        -4.74100938863405    0.09606447232393   -1.78309693757092
C        -5.78294153209437    2.49811079480838    1.04829004790151
H        -3.68520677666644    2.88589320696673    1.25802275983192
C        -6.75733348979316    1.78482391505962    0.34917878622930
H        -7.13618190224182    0.36382548527066   -1.21440333860935
H        -6.09776345205879    3.16198595177785    1.83750084584395
O        -8.05352737822843    1.96403902336683    0.69682062353816
H        -8.62611414694547    1.41679958932681    0.14446122427279

