78
CSD_code = BAPLEK | q = 0 | S = 0 | Stoichiometry = C38H35BrCuN2P | MND = 4
Cu        8.98956245813093    4.16314843981165    3.08255614995749
Br        7.64455474996499    5.96775043567368    3.57085273746725
C         9.38710461970573    6.90817580575379    7.49666581196654
H         8.81560456835980    6.76727353161514    6.59274764182510
C         8.73982294186134    7.28031282518763    8.65780270632600
H         7.66723885256797    7.40304209659692    8.65171834872509
C         9.45723229470833    7.50149131318438    9.82326651360999
H         8.94563646051123    7.78802586704749   10.73049254511890
C        10.83667755119635    7.36768386666103    9.81843476389090
H        11.40158091577393    7.54981776124955   10.72152584341421
C        11.49140676803870    7.00733755491090    8.65753914224583
H        12.56765386535622    6.90167466770546    8.65680358079463
C        10.77710292509333    6.75389097145366    7.48310633669051
C        11.48984773656219    6.33073515542814    6.29661079246187
H        12.55342498153321    6.54097624192048    6.27301725070051
C        10.92413574064322    5.65717237327423    5.28063230759637
H         9.87605209136352    5.40180413403656    5.32166183700194
C        11.61485277579797    5.23059741311615    4.10690294824532
H        12.65265501408687    5.55751542120284    3.96877527356822
N        11.03523330277440    4.49656960357099    3.24070931405565
C        11.66781272410495    4.09878048388774    2.02175847667512
H        11.85179020227618    3.01802540227716    2.07389355430484
H        12.62296255515286    4.61523176541309    1.84717386191659
C        10.68612642047428    4.37716843773212    0.87455256483462
H        10.54937831184405    5.46393094960063    0.78905600844577
H        11.08505051440720    4.00650884843409   -0.07852400759517
N         9.42809611026239    3.76774651974603    1.20295341713783
C         8.54951136141567    3.52600588241387    0.29701845258480
H         8.73548936013091    3.78241041094040   -0.74987341787481
C         7.31011211823110    2.90790439874653    0.62079406041287
H         7.17449935106862    2.64957025115690    1.66416038394455
C         6.34307779848563    2.67368220193055   -0.29060432165760
H         6.52206308049733    2.98365095278420   -1.31414406564117
C         5.06378560207476    2.05061290671105   -0.05084348602316
C         4.16272402462161    1.92810089825852   -1.11586524372385
H         4.44268038724490    2.30583510249249   -2.08934972831888
C         2.92751544669895    1.33911814601209   -0.93937436553344
H         2.24580581723349    1.25690920001700   -1.77340943309666
C         2.56136033336873    0.85401300208171    0.30625536553362
H         1.59488216781973    0.39306064456879    0.44639506897642
C         3.44231284269032    0.96503763361542    1.37086157754229
H         3.16452124393510    0.58961177867763    2.34455934693524
C         4.67767899002769    1.55493420908438    1.19961945633976
H         5.34482284732595    1.63166027382981    2.04337152431848
P         8.55982632901792    2.40827428792645    4.47049825415217
C         9.03454457944845    2.81573240829450    6.17906900255379
C         8.12482544679895    3.31831156881157    7.10362601224052
H         7.07489297813180    3.37330903625036    6.85443975159252
C         8.56531372227197    3.74912404689126    8.34207117214251
H         7.85480844097447    4.13702138851650    9.05654854869272
C         9.91026828945230    3.69424469733567    8.66519900920283
H        10.24911799426672    4.03885835492781    9.63062202957878
C        10.82267696176351    3.21064082384234    7.74112419760944
H        11.87454481395427    3.17570886821356    7.98574019850677
C        10.39127231032671    2.78344110771992    6.50116015324335
H        11.10393480370946    2.42179287083428    5.77037703245299
C         6.83175902535424    1.85248589705386    4.65382066746144
C         6.45549700156240    0.51519080280855    4.72482299869857
H         7.20188764898778   -0.26505600994983    4.67545066646174
C         5.11944013250536    0.18297087490282    4.86063926756342
H         4.83280390676720   -0.85724918797329    4.92181069475166
C         4.15346164245361    1.17470716936773    4.91926660229548
H         3.11311199734483    0.90827957623303    5.03793995710685
C         4.52125606617937    2.50667421970429    4.81797947683229
H         3.77174718738426    3.28313223886114    4.84042647980529
C         5.85403919862371    2.84749722765300    4.67805398496400
H         6.13575176394111    3.88730056956188    4.57572651645568
C         9.45580571922522    0.84785852629876    4.17917822986166
C         9.83555535024859    0.57879019417079    2.86808563336018
H         9.59662312871227    1.29686150752589    2.09305766199454
C        10.51386481627255   -0.58755043032437    2.56283071970103
H        10.80578474949403   -0.79302743296903    1.54286618631388
C        10.82043252811000   -1.48963649707541    3.56807176293690
H        11.35253665912400   -2.39989137096364    3.33365624321493
C        10.44639893447700   -1.22476232940652    4.87669712697127
H        10.68514943866517   -1.93056249097273    5.65923820513579
C         9.76563088403216   -0.06194650207974    5.18617607421376
H         9.47369532996857    0.14456820550013    6.20687258827114

