147
CSD_code = BAPLAH | q = 0 | S = 0 | Stoichiometry = C66H74N2O4W | MND = 6
W        -1.65925625993207   10.50602215180397    5.02798865592254
O         0.42858563137050   10.55510074701085    2.67787639943550
O         0.43881947296364   10.50142164810790    7.36958542220111
C        -1.65884550343999   12.53904440669651    5.02781248426870
C        -1.65938505455501    8.47194959486567    5.02723912070374
C        -0.30400009217679   10.52949229850675    3.55699474064952
C        -0.29844488235488   10.50255229963911    6.49384466313961
C        -1.65558690127027   15.06031859384909    5.02823743727390
C        -1.17263385867401   15.73726163876072    3.90309448210778
C        -1.17451668230336   17.12386326458003    3.92230565644964
H        -0.80284676147277   17.66235970999694    3.06314602252801
C        -1.65284636584875   17.81014747256304    5.02762441596643
H        -1.65187667975637   18.88988864709084    5.02731572784861
C        -0.70422197709929   14.93391943681428    2.74692235679277
C         0.58406236299796   14.39353139831076    2.75110485152286
C         0.98695228285053   13.61693838998235    1.67361442791227
H         1.98120322409649   13.19793212066793    1.65594294586116
C         0.12472951235921   13.35942761841638    0.62616434149293
H         0.44831825530660   12.74400877894884   -0.20034193843572
C        -1.15563344386485   13.87724680309960    0.64246144493315
H        -1.82832131287379   13.65432304099154   -0.17158175711218
C        -1.58681965247273   14.67083209354054    1.69593561588206
C        -3.96845110717582   14.01473349103275    1.94733949366354
H        -4.99200127055134   14.37504937421950    2.02747244165494
H        -3.71267933736123   13.48520061186709    2.86305461729089
H        -3.91443338542983   13.30827577304526    1.12273331628779
C        -3.00786722497543   15.18537155817815    1.72411344770654
H        -3.11660819003359   15.87689796480247    2.56622539717353
C        -3.36169945978508   15.94981263862919    0.44750081742595
H        -4.35076627278101   16.39340810542168    0.54150940072669
H        -3.36652079739343   15.29199746843825   -0.41749461609894
H        -2.64161842322888   16.74600389870994    0.27027808259976
C         1.99791756412994   13.31804974617978    4.51570231613632
H         2.60427049651154   13.50699592413545    5.39893278863748
H         2.59266237594307   12.74352478285020    3.81040167163850
H         1.13959971097503   12.71218845884262    4.80737662240846
C         1.53683735290282   14.64037057267162    3.89855181920777
H         1.01802198388298   15.21260517951130    4.67484852179647
C         2.73455872197476   15.47006472296958    3.42985878449528
H         3.40031350922783   15.67463587375485    4.26565649968292
H         2.39857437124801   16.41826824238931    3.01513265295077
H         3.29630168286527   14.94093758205037    2.66417217245752
C        -1.65546769830367    5.95084016006780    5.02779388037276
C        -1.34122534185437    5.27332974743232    6.21094345172750
C        -1.34224701824422    3.88690807077482    6.19182105219550
H        -1.10088317955096    3.34778887597245    7.09585650361995
C        -1.65281547865252    3.20140835834947    5.02754392209432
H        -1.65190228889452    2.12167031509208    5.02746776168833
C        -1.03714097998620    6.08242765404985    7.41715064592622
C         0.25302825582653    6.58290463303535    7.60802204259004
C         0.50439404108076    7.37944967607395    8.71638932002461
H         1.49591406924409    7.77198305186838    8.88167061995903
C        -0.50455349712134    7.68961343462131    9.60697106087853
H        -0.29682695334725    8.31866872741776   10.46012467999927
C        -1.78128682507971    7.20495866851638    9.40045443994023
H        -2.56621283390798    7.46538562265090   10.09406535059684
C        -2.06598550623562    6.39812462057241    8.30783311040306
C         1.93226437977563    7.56758192738859    6.03729770738257
H         2.67264673222144    7.33684051805196    5.27439340374987
H         2.40802899295336    8.17444184698190    6.80317036984763
H         1.13758733516784    8.15873393698540    5.58229233252626
C         1.36577558620054    6.27650890812471    6.63189954731060
H         0.96181300714246    5.67513843766884    5.81053708887495
C         2.46674373060854    5.45865150268304    7.31103239037735
H         3.24336039638190    5.20455183973972    6.59272205025020
H         2.05653785516521    4.53639390441844    7.71743503254076
H         2.92104830036860    6.01913164448413    8.12411613278389
C        -4.39034427719810    7.10455183957273    7.77008137875662
H        -5.39584927461841    6.76073815273846    7.53654057860122
H        -4.00782882850305    7.66534792430737    6.91936633150175
H        -4.44565200279665    7.77808095113591    8.62144234817758
C        -3.47841440995610    5.91378636387556    8.07326978905149
H        -3.48503969256506    5.25282810927977    7.20004754550536
C        -3.99990204067796    5.11232182253829    9.26724257689515
H        -4.98806973091937    4.71398904150000    9.04664425917925
H        -4.07405805604667    5.73451748224408   10.15518624523774
H        -3.33312351217043    4.28066177387807    9.48541730165054
N        -1.65738529208026   13.70772082178203    5.02841604158815
N        -1.65764845454296    7.30330047996611    5.02799632081350
O        -3.74775646982456   10.55755687987645    7.37756164495731
O        -3.75825907092341   10.50197958168966    2.68697500692826
C        -3.01412356676648   10.52732589793761    6.49945275217782
C        -3.02036225178612   10.49845581059456    3.56222304353924
C        -2.13698320062104   15.73875790794598    6.15316266881128
C        -2.13240820707515   17.12533857132050    6.13332858946215
H        -2.50300241968311   17.66496406144514    6.99224457113683
C        -2.60682184611635   14.93673630412606    7.30966949663439
C        -3.89594684162059   14.39835501124019    7.30548045615836
C        -4.30016566497841   13.62266873037004    8.38312302877849
H        -5.29507208939260   13.20521962231112    8.40079958439950
C        -3.43845905076916   13.36410837908155    9.43074057863909
H        -3.76309138955130   12.74939810388764   10.25736586660028
C        -2.15731710085414   13.88000277856061    9.41449708480543
H        -1.48508788140235   13.65626949867679   10.22869504898073
C        -1.72477125973195   14.67264211281275    8.36086638949271
C         0.65584570113341   14.01296060277377    8.10926024361489
H         1.67994902310491   14.37171924056380    8.02919740931618
H         0.39927392554771   13.48400975063245    7.19344381059630
H         0.60073820214030   13.30641452730693    8.93371727451752
C        -0.30293974977411   15.18502560379258    8.33272375289161
H        -0.19318864851359   15.87651175579854    7.49071006186623
C         0.05216932969127   15.94871219007562    9.60943310602972
H         1.04183784294257   16.39094412193654    9.51533123043269
H         0.05625806781976   15.29071293582721   10.47429191124135
H        -0.66676519903763   16.74587003461856    9.78696318661731
C        -5.31230421535719   13.32504293532506    5.54143572239617
H        -5.91821488822196   13.51496998813098    4.65810961595004
H        -5.90837777896056   12.75219745913759    6.24697769489260
H        -4.45534964006583   12.71711441478169    5.25004644610356
C        -4.84826085809501   14.64661280336280    6.15795740930332
H        -4.32828599249144   15.21734628207570    5.38133607022929
C        -6.04408374783231   15.47918577145526    6.62640421117731
H        -6.70964815007443   15.68460184601948    5.79066241287187
H        -5.70594510189233   16.42695787438496    7.04036823279771
H        -6.60670738322188   14.95178872955407    7.39263911880949
C        -1.96814826561699    5.27293140842960    3.84447607076255
C        -1.96451111650413    3.88652348530491    3.86334753662775
H        -2.20483620083307    3.34712877948471    2.95920112289767
C        -2.27363525925263    6.08181351933944    2.63848302611610
C        -3.56459074773458    6.58039921584482    2.44796092914436
C        -3.81727298835185    7.37712399401525    1.34002523461151
H        -4.80942041736235    7.76817089015266    1.17499714248030
C        -2.80886176419490    7.68932469381570    0.44954711195551
H        -3.01761224086053    8.31854129456777   -0.40323769304320
C        -1.53139044151993    7.20644456922945    0.65566111556050
H        -0.74692670854779    7.46842675909972   -0.03788738242570
C        -1.24536850702195    6.39944601173363    1.74781704726320
C        -5.24598139214992    7.56130620839196    4.01886175001671
H        -5.98578559929270    7.32878798584438    4.78178478225805
H        -5.72313093637632    8.16733810422085    3.25319727781028
H        -4.45251912141794    8.15402815123328    4.47394019225160
C        -4.67683054025494    6.27157896907229    3.42389492107711
H        -4.27178807484921    5.67073711803416    4.24510870957335
C        -5.77604129791022    5.45172431320872    2.74432465818283
H        -6.55230690676607    5.19588947298242    3.46239587316790
H        -5.36391242711865    4.53039345891137    2.33776241674506
H        -6.23125834507993    6.01153104200979    1.93128849687760
C         1.07798267421922    7.10880241318254    2.28623383911428
H         2.08407985949977    6.76627377583553    2.51912349020397
H         0.69482657263355    7.66801339461672    3.13769444914975
H         1.13202301371434    7.78340704564319    1.43564093744690
C         0.16779201404921    5.91700018194281    1.98191087496330
H         0.17540238834478    5.25519862946489    2.85448898169824
C         0.69048436873125    5.11750518887588    0.78714274940017
H         1.67913890331840    4.72022577028197    1.00745950072682
H         0.76397619828178    5.74073926921100   -0.10012813163570
H         0.02482375477816    4.28521179680887    0.56797985605571

