80
CSD_code = BAPLUA | q = 0 | S = 0 | Stoichiometry = C38H35CuN5P | MND = 4
Cu        3.12056510519119    2.48929033808658    5.55386004445866
C         3.52833172559078    5.05775000127322    1.13854575838203
H         2.92923467948703    4.92234557431107    2.02501154550466
C         2.92415899701647    5.46494937423424   -0.03290382150938
H         1.85825468235188    5.63903247117430   -0.05167382526029
C         3.67477268031217    5.65307528399250   -1.18343086855228
H         3.19652577832677    5.96880972284321   -2.09888178671480
C         5.04378366735007    5.44067253093943   -1.15051147308565
H         5.63581283173368    5.59136603054767   -2.04184412174312
C         5.65326170971639    5.03976425272073    0.02103926851872
H         6.72178230169261    4.87548184035588    0.04107116934290
C         4.90808774103860    4.82986022281413    1.18677710328141
C         5.58416106912772    4.37552334453045    2.37947682091028
H         6.66728320273191    4.36724420567927    2.32975348298921
C         4.98413141546639    3.92312885981492    3.49882940210398
H         3.90537651278548    3.88055263114574    3.57916687774894
C         5.67900918210895    3.42637290024954    4.63722881611174
H         6.76895549595117    3.51530028963449    4.66395229684589
N         5.03625857736096    2.87665353165147    5.60051836593166
C         5.69454779723727    2.36160805084065    6.76560842160322
H         6.60348450439978    2.92615365675199    7.01079082509412
H         5.97483759423354    1.31722207822263    6.57320718410127
C         4.69692911751934    2.38830876305928    7.92958563227976
H         5.13563936175337    1.91700715059372    8.81770063956178
H         4.45872786659842    3.43022603162287    8.17969918449100
N         3.51332747817700    1.68976414658022    7.50399806074274
C         2.52645742301441    1.52290056937992    8.30694374736404
H         2.52718167051513    1.92153461302589    9.32423049761541
C         1.37309493967411    0.79737428895272    7.87573142671447
H         1.43908473710887    0.36761132008237    6.88369022537553
C         0.24521330173862    0.69799392911109    8.60045333079757
H         0.19295198141245    1.21957459453670    9.54793070326050
C        -0.95191981060685   -0.01130377167728    8.20248799142315
C        -2.16267467346705    0.28649061409318    8.83563725315079
H        -2.18181774194031    1.05005512028563    9.59983391180351
C        -3.32709720868581   -0.36538446971786    8.48253165854896
H        -4.25545785112563   -0.11502040540237    8.97528361525386
C        -3.30494553821114   -1.34633760877208    7.50385453597315
H        -4.21344809255144   -1.86487232676995    7.23445154921065
C        -2.10957314875195   -1.66442464288372    6.87910544869719
H        -2.08456313441628   -2.43716390753562    6.12450417222177
C        -0.94628397863790   -1.00239099836817    7.21695133674734
H        -0.02179859238387   -1.26768207928145    6.72651312565555
P         2.61163809123830    0.82518634004789    4.07736981148111
C         2.94429483611871    1.21729837992675    2.33307580255362
C         4.26600240580158    1.17492464451640    1.89139038843495
H         5.04063608823610    0.83997833488083    2.56952387041899
C         4.58051691112722    1.54869953078081    0.60003494611976
H         5.60492117522188    1.50460656241305    0.25998265213019
C         3.58385966862495    1.98559255585475   -0.25817131475883
H         3.83113662120778    2.28223062726138   -1.26633830098784
C         2.27403278536500    2.05677119869638    0.18458771016132
H         1.49919619386260    2.40903490114422   -0.48030286965337
C         1.95165810644394    1.68136861356579    1.47650920617932
H         0.92952539417553    1.74244049261438    1.82360579293638
C         3.42004864693074   -0.79902383553058    4.26734225452175
C         3.62239098322643   -1.69242353024401    3.21913872250716
H         3.31826040920597   -1.42825921536775    2.21537072209345
C         4.22618461653567   -2.91272095368698    3.46274174395817
H         4.38095674956863   -3.60578910380898    2.64823449711104
C         4.63183503212921   -3.24959128733731    4.74457479273744
H         5.10093594873488   -4.20525011823932    4.92732320910343
C         4.44380030000575   -2.35761537110046    5.78778902765446
H         4.76851391549128   -2.61558686157831    6.78552118416639
C         3.84399873718851   -1.13400211778853    5.55038473252755
H         3.70743107476678   -0.41657202755022    6.35024712188004
C         0.83868482537666    0.39382250446053    4.05029908782577
C         0.35123695404811   -0.82142920230649    3.58167086405432
H         1.03305950622874   -1.58057389578304    3.22491793286583
C        -1.01179083935922   -1.05642537984282    3.57768011261483
H        -1.39034181833200   -1.99874422876152    3.20788924645866
C        -1.89008530065717   -0.09259099078732    4.04681055883724
H        -2.95269733271075   -0.28524501695029    4.04538674112753
C        -1.40551534397686    1.11284305866795    4.52676001348105
H        -2.08719774555913    1.85972177416164    4.90488644654382
C        -0.04473177725930    1.35792268170630    4.52922753598718
H         0.35248289328986    2.29135200803173    4.91122800099116
N         1.74540843039442    3.72826338196326    5.99583613257027
N         1.38988312507211    3.87581938203451    7.10014475875133
N         1.01708437431007    4.03594804088742    8.16271733152874

