46
CSD_code = BAPMUB | q = 0 | S = 0 | Stoichiometry = C21H20AuO2PS | MND = 2
Au        7.14042900381298    5.42089823415343    2.28803526702683
S         6.85673697010984    3.29703381433965    3.21544243791332
P         7.38492096099984    7.46106684669388    1.34406661409129
O         3.44319682619081    3.39847868488727    3.30956988780137
O         4.48889039691110    5.01108894266480    2.19036071204799
C         5.76119665626182    2.73521602883029    0.70319993691919
C         5.42659375007342    2.79394987633294    2.18321159738663
C         4.42693301392646    3.84336618310251    2.53012106878404
C         6.31765482632438    8.75135726989468    2.03513822640084
C         5.01022311984527    8.36879708002080    2.33066533924797
C         4.12798956583415    9.29456866845891    2.85483020381061
C         4.54874582314459   10.59307479095441    3.09899875905762
C         5.85319358814915   10.96681759034668    2.82095233790191
C         6.74306364755565   10.05024225544970    2.28877005710496
C         9.05226066663636    8.17036908038377    1.40459550404836
C         9.82777754684400    7.86484394221255    2.51910566877964
C        11.10281806090759    8.38557873001929    2.63801252712657
C        11.60961986418578    9.20412357151696    1.64101641986945
C        10.84220076480859    9.50232858001131    0.52594733408269
C         9.56372439173662    8.98928422688046    0.40270539671525
C         6.98738248333629    7.46777461303790   -0.42470994740339
C         6.02261077886762    8.28515909349061   -1.00061241739619
C         5.75892117417958    8.18111764277541   -2.35567259122772
C         6.44845205609110    7.26694621014490   -3.13430535702486
C         7.40614700476747    6.44447485997654   -2.55958596475060
C         7.67081638100210    6.53881838214268   -1.20774216914372
H         4.70465408904870    7.34666478823606    2.14957297752208
H         3.11206270655730    9.00425232875971    3.07875126157974
H         3.85937017753989   11.31441012943170    3.51239030037570
H         6.18041866668699   11.97682740147823    3.02009076587442
H         7.76265112297355   10.33956595498529    2.07414076594754
H         9.42045165918602    7.21079628489419    3.28021284802296
H         8.96164308675263    9.21894516262556   -0.46607302041304
H        11.24187215248039   10.13743871901777   -0.25108501706104
H        12.60745469682639    9.60713436681865    1.73028871615243
H        11.70379469569952    8.14838496170668    3.50311768039066
H         5.48221593947615    8.99722237212574   -0.39262727890394
H         8.40657624179799    5.89556556617298   -0.74001860520026
H         5.00986891728488    8.81698815169420   -2.80453617481927
H         7.93813158088636    5.72609651476023   -3.16564847984233
H         6.23607788455155    7.18986513207724   -4.19023474522257
H         4.92780293341626    2.31083745686476    0.14431849853327
H         5.96692742875708    3.73807275340003    0.32761762728489
H         6.64328166729025    2.11741808257650    0.55418862514738
H         5.09988471429672    1.82643319452411    2.56557474542609
H         2.87606031599342    4.13320547911244    3.59574166003098

