58
CSD_code = BAPNEN | q = 1 | S = 0 | Stoichiometry = C25H23N3O6Re(1+) | MND = 6
Re        0.44486783711906    3.01106157172721    4.55177237219735
O         2.02930615730866    2.40165965977553    4.57558503432516
O        -0.30771600815554    3.53357088021232    8.68783955901456
O         1.11743339821695    4.88451601395671    5.02309085607213
O         0.90163088812827    5.02656726539763    0.86389143352821
O        -1.19240049147198    4.06134231676207    4.30020754637879
O        -2.55233416632541   -3.46683894262431    3.47034566525319
N        -0.43525012980588    1.48829483599258    4.23091170096335
N         0.07574331655665    2.86901644737168    6.60573043609985
N         0.73834539675358    3.57725930884658    2.52983646255986
C        -0.98083150327014    0.31597071382774    4.06392108190136
C        -2.38706667768145    0.15054530387507    3.92441534652673
C        -2.93975524215094   -1.08531807631099    3.72476602421492
C        -2.12024889944420   -2.22906155461831    3.65995609731438
C        -0.72053089925302   -2.08121091627954    3.80416944777980
C        -0.16274069625557   -0.85464265498374    3.99895813748649
C        -0.06896257997848    1.62632967069506    7.35475863260229
C        -0.35901015170829    2.11245885385692    8.78392414100043
C        -0.03972022179851    3.87995981665796    7.43461424994670
C         0.09447329948760    5.26981270249757    7.13741149428598
C         0.70167372560708    5.70106410549154    5.91721497158158
C         0.85534826986472    7.09568100836205    5.72672614242658
C         0.42409100705986    7.99511581575645    6.66400105139042
C        -0.16875387611482    7.56264602053329    7.85584060408708
C        -0.31649703063953    6.22184121752392    8.09015440200102
C         1.71176924681190    2.96763287689281    1.63708629311193
C         1.82797814962468    3.99911160432077    0.50194060563846
C         0.34931681631904    4.71416049707948    2.02707808890226
C        -0.62361570640982    5.60881684229685    2.59352477935631
C        -1.37779747880745    5.21432928063983    3.73483813830392
C        -2.34420317049467    6.10953303937060    4.22858491109992
C        -2.53230170332532    7.33900945037494    3.64390243820736
C        -1.78534588586324    7.72305159474384    2.53064313526561
C        -0.84999030213355    6.86255565263424    2.00840018735100
C        -3.93260646746522   -3.73436481680717    3.30428007889805
H        -3.00713887055720    1.03248168329805    3.96989287199924
H        -4.00901709116669   -1.17681892269133    3.61523813302663
H        -0.11687205390878   -2.97365536402153    3.75074208016549
H         0.90174919685642   -0.71768051060090    4.10778997866756
H         0.85904465971923    1.05305890649702    7.27416830691388
H        -0.88337583150284    1.03405471312676    6.93010866920640
H        -1.35141341866320    1.82990512612529    9.14479194854745
H         0.39243302932199    1.79289847056316    9.50955159497337
H         1.31622924524559    7.42280050052961    4.80689492154556
H         0.54340328524445    9.05251196637880    6.48182372714567
H        -0.50098348898715    8.28373135236523    8.58492939316262
H        -0.76283040926622    5.86519872925665    9.00538629447263
H         1.33909229437967    1.99555326308308    1.30376309217931
H         2.64264720783771    2.81020303180855    2.19029758990744
H         2.82142930630246    4.44773824733766    0.42507601458788
H         1.53304303537134    3.60562487602934   -0.47340993264285
H        -2.91488210673223    5.80970918658643    5.09460296524203
H        -3.26737994542923    8.01445245483923    4.05427552841233
H        -1.94397263772035    8.69019178059544    2.08189033067793
H        -0.26460431010478    7.13688264228329    1.14470337156052
H        -4.50171069246405   -3.44923325478635    4.19249841685646
H        -4.00544339631586   -4.81030745095289    3.15842366290067
H        -4.33334522776526   -3.22107883348405    2.42683949341427

