153
CSD_code = BAPNAJ | q = 0 | S = 0 | Stoichiometry = C68H80I2MoN2 | MND = 10
Mo        0.16287675967093   13.63647102514348    4.38295050600189
I         0.74901911899462   16.02569494824555    2.78060956265149
I         0.28984302419520   10.72333383658747    4.13999125812372
N         3.19923393436935   13.10274097378079    3.71924563803016
N        -1.83061361483007   13.43893839239724    1.97731784665900
C         2.04187425884734   13.28148701943077    3.82534020757027
C        -0.94173984480384   13.43267319453264    2.74439120227756
C         0.62978633798243   14.97721922567948    6.14714922915757
H         1.42372632713281   15.69050146659319    6.34247300718544
C         0.72305091516920   13.67103675738923    6.69542465663968
H         1.60392689847373   13.38825054603170    7.25818306997031
C        -0.35461555818186   12.80771985052464    6.58780615614360
H        -0.31251172672166   11.82554280044622    7.05096055806411
C        -1.51091957341201   13.18040114368231    5.84771187532777
H        -2.36203779561067   12.50740710150746    5.80255026376099
C        -1.69531184889767   14.55352302921970    5.54423508690611
H        -2.67310111661412   14.89892016593649    5.23246796327612
C        -0.65112128412466   15.44341326922850    5.73717877841692
H        -0.79863735534222   16.50402863292225    5.55113910927337
C         4.53990318485172   12.89022478837726    3.81917241700160
C         5.18471099730382   13.13435457333933    5.04372026246500
C         6.54065285401812   12.86351816565751    5.16489749317344
H         7.02049536557645   13.04169823596647    6.11638001687758
C         7.26675698550202   12.37476918568378    4.09523891318310
H         8.31980059508238   12.16389598186147    4.20342965700493
C         6.63628770934163   12.17779256569862    2.88283069958106
H         7.19577725235028   11.82193284485114    2.03025662346936
C         5.27754006295550   12.43015019677700    2.72032427529366
C         4.50727077691165   13.70948201275106    6.23141159869417
C         4.16412151354000   12.87430934634966    7.29795220715116
C         3.67053258546727   13.44755885779477    8.46461057930621
H         3.40870470851444   12.81934906200156    9.30362247802606
C         3.52302966082364   14.81793450697906    8.57039020982951
H         3.14849328643795   15.25179216034175    9.48669945924861
C         3.86373463672292   15.63494026819203    7.50789077431668
H         3.75996908274571   16.70410003080038    7.61190513967281
C         4.36154510618794   15.09915569635559    6.32734433710660
C         4.74321641088196   12.23414287692346    1.35150984178214
C         4.59734546877588   13.34651178221063    0.51343992599036
C         4.35442017383335   13.13091667472055   -0.83504225917721
H         4.28329976828430   13.97156134003533   -1.50616766761539
C         4.22025897416848   11.84863189646722   -1.33612569554359
H         4.04288116531434   11.69732019440126   -2.39204070797830
C         4.30850008379443   10.76089699017581   -0.48930023252129
H         4.18112349452171    9.76569179789711   -0.88729942479199
C         4.58497758358061   10.93575675978909    0.86043165403709
C         5.33137885889432   10.88165763829095    8.25482259840018
H         6.28451633026391   11.39453922472742    8.14454510782772
H         5.49889431037393    9.81368084398062    8.13576972690217
H         4.96154310065412   11.05957053292185    9.26179833688234
C         4.33214094326731   11.37464016426194    7.20582786017273
H         4.72937376304374   11.12575358719562    6.21679336442082
C         2.98962933590951   10.65765425559965    7.35714468785611
H         2.52821454952997   10.87817869242930    8.31757328405674
H         3.13097628800982    9.58212225812649    7.28579334538272
H         2.31142899607067   10.95597216566849    6.56130984004889
C         6.28212978997732   16.42017619738195    5.49311216501473
H         6.34269981800130   16.95652633444277    6.43801028439596
H         6.64357669477349   17.07118343017870    4.70053534704545
H         6.93191511248664   15.54974602930721    5.54705119477743
C         4.83567226958376   16.00072481013850    5.20956950409595
H         4.82695429772536   15.43419281435255    4.27398150230722
C         3.96333130143449   17.23753488294249    5.00498545984738
H         2.92042506243680   16.96183835437568    4.87768331756019
H         4.27622413759316   17.75738538202868    4.10288552474728
H         4.04807096379109   17.93220137996781    5.83704928738198
C         6.25616216803340   15.15069370261538    0.95623139396446
H         6.59079675808716   15.11357296508520   -0.07845565973905
H         6.88068598578457   14.48154833205528    1.54468742595650
H         6.39067804875889   16.16438795077373    1.32736109190965
C         4.78055389611080   14.74844284244304    1.04981338884930
H         4.49019012004859   14.75552157495134    2.10393488857321
C         3.90586375447014   15.77940135860995    0.33937277386199
H         4.27794954620438   15.99516310291465   -0.65895790053864
H         3.90280722808965   16.70871469340647    0.90375811778866
H         2.87981163499227   15.42883370293339    0.26951387820454
C         5.87470272538842    8.83736442019165    1.30857740219314
H         5.68443560951940    8.42996553463657    0.31893066618996
H         5.99957829195444    8.00784252581111    2.00112471664633
H         6.80560970665166    9.39962799003645    1.27372827637873
C         4.71820930450127    9.73124172043714    1.76366165673974
H         4.93575103619637   10.07444593334969    2.78019245522529
C         3.41083921331651    8.93957589313727    1.81142050961159
H         2.60317300696705    9.56452102789494    2.18174486854163
H         3.51442577687348    8.08782993191414    2.47935756151924
H         3.13892271057780    8.57157523850744    0.82587543735194
C        -2.80982922672510   13.33572102952810    1.04440995821192
C        -2.53295976599455   13.56782689826216   -0.30988979420144
C        -3.53649686647605   13.33314139197714   -1.24121133670312
H        -3.31238417865162   13.47862909770581   -2.28734670502877
C        -4.80043491950783   12.93589102112805   -0.84591294508257
H        -5.56773875875399   12.75605642421554   -1.58356169586152
C        -5.09397033708289   12.81653195421986    0.50139525897483
H        -6.09938661323949   12.58791318487409    0.82206205418868
C        -4.11147940037792   13.01225711865071    1.46019564264104
C        -1.23915972208485   14.12481966856323   -0.77040205872427
C        -1.17041420909975   15.48827367409455   -1.07925481226240
C         0.00989358029862   15.99306617921769   -1.60404073507953
H         0.08184755599185   17.04001949972006   -1.85272777044269
C         1.09787895229244   15.16963600049883   -1.81753053789215
H         2.00298442122190   15.57686993250883   -2.24300068246935
C         1.02798181572802   13.83162353364263   -1.48536475913144
H         1.88419031081362   13.19557991949596   -1.63795547340234
C        -0.13529109044801   13.29328852682764   -0.95485613396599
C        -4.46013746229995   13.00331700249003    2.90249348963748
C        -4.53816761495967   11.80573064911843    3.61852309677202
C        -4.87787651651058   11.85544789762390    4.96437620862353
H        -4.94926236383725   10.94189361420726    5.53427615634424
C        -5.13375855828529   13.06340957393281    5.58648439019428
H        -5.39115435884167   13.08723295334953    6.63624464031961
C        -5.08114972645365   14.23974473743059    4.86234936673258
H        -5.31142741353485   15.17471370697539    5.35324407630716
C        -4.75324492640450   14.22866514159870    3.51225515030237
C        -1.96561871738712   17.65318086512876   -0.07435531173737
H        -1.30990796853846   18.30146875856064   -0.64817440701732
H        -1.44745506826877   17.37360871319830    0.83872043661897
H        -2.85770435669231   18.22017834891046    0.18434338768577
C        -2.35296617385181   16.40853013296861   -0.87413378726504
H        -3.12330105769437   15.87430081731834   -0.30853708350552
C        -2.94986806827654   16.80888003189563   -2.22615857977402
H        -2.21120435722528   17.33267132385139   -2.82796788812348
H        -3.80549551314660   17.46523071622128   -2.08080735152421
H        -3.27935978344203   15.93069287053038   -2.77663692453493
C         0.89386344416828   11.49422064819404    0.42539137588930
H         1.87984030432114   11.52115594086046   -0.02736537283368
H         0.72891214571519   10.50046443475021    0.83358461545973
H         0.87921495643365   12.21647878510869    1.24467340488344
C        -0.19003033885817   11.82781840972464   -0.59934763563466
H        -1.16460027955527   11.60497691398886   -0.15292232551183
C        -0.04109522965358   10.95793240523343   -1.84896628364870
H         0.91954020220123   11.13261451805669   -2.32657808997288
H        -0.82880625308645   11.18249470210053   -2.56569804507182
H        -0.10571962051292    9.90605678595531   -1.57986972076465
C        -6.15772733978178   16.16488760563453    2.79148450068213
H        -6.92051720235929   15.45780878431221    2.47203578535741
H        -6.19657149088060   17.03345051705799    2.13775496400529
H        -6.39240758840856   16.48906533626216    3.80241834155750
C        -4.77121449545023   15.51945656947506    2.72100757959553
H        -4.56995067071816   15.29046948507899    1.67047728322854
C        -3.69519033074977   16.49869947638818    3.19323510060171
H        -3.73881951943930   17.41061835487942    2.60294961944459
H        -2.70333593518485   16.06813735170281    3.06650347405836
H        -3.83826451373816   16.76752972733797    4.23850733509791
C        -5.69475824107472    9.88320615353678    2.56441941791672
H        -6.28441301673735    9.72033044987007    3.46446020303049
H        -5.56215416866165    8.92894720803881    2.05995991836580
H        -6.25050996075014   10.54632042456406    1.90651399482564
C        -4.32974337708465   10.47994349673432    2.92456615465682
H        -3.77429069311038   10.65904181209620    1.99771445694140
C        -3.53831613716515    9.47959705731123    3.76495314531369
H        -2.61888790722680    9.92310970621089    4.13328359372171
H        -3.27145743339977    8.61953935906131    3.15620724258494
H        -4.12028064166155    9.12214307825753    4.61077618703131

