49
CSD_code = BAPNAI | q = 0 | S = 0 | Stoichiometry = C24H19AuNO2PS | MND = 2
Au        1.07344835443793    4.33956938566296    1.91152412942670
S         2.99478592829699    3.04028070261178    2.18189482234036
P        -0.76034300377976    5.66054460653397    1.67323632266528
O         5.93838889096242    0.49178102148495   -3.08262126748543
O         4.15670058177156    1.26286508076957   -4.18446729414610
N         4.58849676950234    1.86384354161211    0.51466232499944
C         4.99725992118589    1.43041222950063   -0.65272870257059
C         4.27549335584289    1.59864463088986   -1.83717992816022
C         4.74827264085884    1.12235747066637   -3.13765177134498
C         3.04015909956072    2.25579165425729   -1.74782897079671
C         2.60807814486134    2.70704763931578   -0.52836810655063
C         3.42034936362032    2.50299317557036    0.60156495978812
C        -1.14498284315946    6.66586278580711    3.13223391051616
C        -0.06220516486034    7.23869414630714    3.79438773213656
C        -0.27360868012181    8.03550959177709    4.90325873424859
C        -1.56410607164360    8.25559498037795    5.35943675488091
C        -2.64183899426353    7.67904106076552    4.70702431178909
C        -2.43900878619116    6.88386836432842    3.59305051644802
C        -2.29783692553913    4.75986465685208    1.34664630752538
C        -2.61621497240298    3.74685263985275    2.25055187985542
C        -3.75479040613868    2.98834159640801    2.06436180272900
C        -4.57130894768717    3.22665690219208    0.96845151955323
C        -4.24632031040262    4.22027691493299    0.06011374745066
C        -3.10894227262325    4.98862247064120    0.24164476818438
C        -0.65392159749892    6.88442950970398    0.33895240583754
C        -1.41011914756602    8.05346663906071    0.35175197480374
C        -1.30504488907026    8.94710185114834   -0.69787648313814
C        -0.45127087543141    8.68166760282361   -1.75760258568710
C         0.30564419788982    7.52126886635446   -1.76954825028075
C         0.20851106096746    6.62438544737264   -0.72132394399335
H         5.95241391351344    0.92276078513608   -0.65707310308832
H         6.18781165221723    0.20420459998788   -3.97416056029161
H         2.45235307158493    2.39141283613503   -2.64439659686135
H         1.65380576581981    3.20697574271031   -0.41860748820170
H         0.94038840408493    7.04569243139602    3.43332683790732
H         0.56608981681104    8.47976057610447    5.41601943117351
H        -1.72994224524020    8.87397082958010    6.22871121862012
H        -3.64587791927970    7.84879105466697    5.06695499222739
H        -3.27946127188733    6.43073257444235    3.08510441741248
H        -1.96109356194822    3.56770644141562    3.09446424738205
H        -4.00426621019639    2.20761062142489    2.76709601243499
H        -5.45948415065520    2.63120164186229    0.81998123647288
H        -4.87984625583249    4.39820466161254   -0.79615051699925
H        -2.85288863690193    5.76171285099118   -0.46943273695400
H        -2.07273024542663    8.25767049069878    1.18171388112740
H        -1.89030150430158    9.85469110444962   -0.68950731761447
H        -0.37293233539207    9.38405434963149   -2.57370382598918
H         0.97442433030147    7.31722028330965   -2.59199656678357
H         0.80391296135250    5.72038895886814   -0.71379518301376

