67
CSD_code = BAPTAQ | q = 0 | S = 0 | Stoichiometry = C24H30N6NiO6 | MND = 6
Ni        8.06913463173981    7.53284446173791    9.64389995913218
O         9.18508992214941    8.88065874192387   10.75841195000740
N         9.91984504955030    9.76514706968968   10.17090710749466
C        11.30333855109655   10.02578592844507   10.59114681375183
C        12.15336726476203    8.87072091691742   10.05073046791168
H        13.18711472793650    8.95889522949753   10.37313117510158
H        12.10917725346053    8.84212339781595    8.96419389174795
H        11.73955247591094    7.94076270110514   10.43809729264751
C        11.38770457331670   10.05934783304316   12.11131033383953
H        10.69126072219991   10.77636044314931   12.53328549174515
H        12.39710158506484   10.31050728842122   12.42523110691703
H        11.12926726175275    9.07766815612140   12.50065000772002
C        11.56051995040696   11.37300254212647    9.87047960556893
C        12.97033167735702   11.58768700901876    9.33942308938415
H        13.67512491965385   11.65453230656880   10.16337612870741
H        12.99122550496064   12.51814028188946    8.77735022718863
H        13.27449588480249   10.78989787272788    8.66917724071056
C        11.12624473219650   12.59135204908834   10.69098982813629
H        10.11698034326423   12.46300385935760   11.07546165201878
H        11.13413168170890   13.46450817653814   10.04159125041846
H        11.80873010996399   12.76669287778946   11.51744384962977
N        10.60817554882812   11.28361059034021    8.73323773986108
O        10.70396118814319   12.03573778060469    7.72914315992659
C         9.65417178646301   10.39512822340749    9.00374699965778
C         8.56946061719011   10.00569649500379    8.15456750376998
N         7.92066236552101    8.85121444802679    8.37515353644380
C         6.97826422593781    8.71015719230871    7.39922571139589
C         6.18397392483401    7.53713557333811    7.46883684873451
H         5.39244785709790    7.39389570802812    6.71767965616996
O         6.35787313396116    6.68926369465503    8.34635087397175
C         7.03930484258772    9.82128684061095    6.53523706452795
H         6.41731784911519    9.98513366844550    5.67710902623153
C         8.04613555511009   10.63702827974862    7.00662084171621
H         8.39446676244921   11.56819680870881    6.60680912301478
O         9.31167398057925    6.46090224499590    8.53362340051429
N        10.13344442072450    5.57703740313342    9.05592311478881
C        11.17293507401551    4.96819508401777    8.21282903746803
C        12.03788840665280    6.04539800068685    7.56898701233205
H        12.73784185755586    5.59278344605473    6.87228459827003
H        12.59204486526535    6.61711477147627    8.30481699961443
H        11.38703565537410    6.72389239078000    7.02190509220952
C        10.42726043743883    4.20786388130698    7.10672378624492
H        11.12361820217875    3.73256745669210    6.42260487492272
H         9.81767503394553    4.92004800764662    6.55490477483656
H         9.76346705827781    3.45761622326170    7.52957007800162
C        11.88821873132683    4.04173045583123    9.22998922679573
C        13.11564341983705    4.67278589219805    9.89636673853570
H        13.93839314778084    4.76120543967080    9.19320752764065
H        13.42388893585443    4.02996789692765   10.71835891579481
H        12.88013134829452    5.65235160047395   10.30610629900619
C        12.25730855990552    2.65382954332856    8.72080310811639
H        11.39812570884547    2.13087017425370    8.31377938103887
H        12.63256442850759    2.07278128102350    9.56017884652071
H        13.03082200353006    2.72256831800299    7.96131859393188
N        10.87219231874459    3.91416596495237   10.30389064186656
O        11.01760581496429    3.09158507327066   11.25236311828744
C         9.92879929978353    4.84204205652242   10.17063009953653
C         8.88145350145050    5.14574270503459   11.09671470106327
N         8.12630193311594    6.23391478909194   10.90517525041274
C         7.20400660604792    6.29409401019287   11.91238723473203
C         6.30906404281343    7.38100016637423   11.80678525815590
H         5.51113106404105    7.50923270831974   12.55050162676625
O         6.40553581763489    8.18543755457770   10.87018615267624
C         7.39996265817171    5.19454727778859   12.77344181289278
H         6.82702067788490    4.97492776999122   13.65288254472360
C         8.45847490605149    4.47307410308202   12.26453106131541
H         8.90211560290340    3.57480186282635   12.64482253578064

