38
CSD_code = BAPTOE | q = 0 | S = 0 | Stoichiometry = C16H12MnN5O4 | MND = 8
C         4.66737824185675    1.75778734373138    6.43174155391986
C         5.20646717211931    2.37412359845978    7.60451198699137
H         6.25807670495834    2.38522422217851    7.85749794605210
C         4.14120626716179    2.77159963459054    8.42975609871556
H         4.23030970973272    3.14595233439917    9.44030560259870
C         2.92774899063840    2.39908940781280    7.79136840886150
H         1.94388206407553    2.43869170663936    8.23910530566080
C         3.24233574288541    1.78316158704486    6.56499993270135
H         2.53307628824124    1.25938965109910    5.93760221673347
C         5.48845088758968    1.00991328528408    5.46923342163993
C         4.82239284800201    0.51894983180928    4.19220190875940
H         3.80929678283837    0.90379436297404    4.07896346272198
H         4.79173563248063   -0.57256334978041    4.22328826795430
C         5.66682732715955    0.95276438773050    2.98437556679535
H         6.70930874587159    0.66512245052426    3.14926103931452
H         5.28718499960311    0.48683079530670    2.07263044731387
C         6.23073184941298    3.35115079185735    3.51129357593189
H         6.99343510986211    3.11787708525025    4.22907544462129
C         4.92206399357039    4.39984857531680    2.21677217471598
C         4.13166417289935    5.28492002681567    1.46198019356944
C         3.19097606367352    3.45536931537159    0.44763774962213
H         2.47242391094206    3.10311190110279   -0.28055420497111
C         4.72763304354548    3.03078935855007    1.96916736997480
C         3.18885439986460    4.08811817755845    4.95186348681303
C         5.43637888467235    4.80582482175775    6.17569048383830
C         3.13704421648820    5.22682205247100    7.23914452928671
N         5.58558800584076    2.37563597982962    2.80380267586899
N         5.86802439520595    4.55994923570179    3.19895350217113
N         4.22636050251955    6.62149283261761    1.57259527284874
N         3.27344706388228    4.76922579279029    0.57879491947561
N         3.86507603439935    2.52004230944585    1.08993195522191
O         6.66233202040858    0.78399657604046    5.68462607735377
O         2.61199662408346    4.20743149168016    3.96743239789473
O         6.39328356848631    5.41753189077922    6.05102166492212
O         2.57853319768956    6.09650421213551    7.73709302635823
Mn        3.97809848803470    3.82164731651929    6.53051771282622
H         4.77965452909644    7.00474592181878    2.31766215064625
H         3.55972152021089    7.19193308479304    1.08365467427344

