92
CSD_code = BAPXEW | q = 0 | S = 0 | Stoichiometry = C42H42Cl2N2P3Re | MND = 5
Re       -2.59034393790215   -3.12644510616167   -4.34395658236353
Cl       -3.20738610711345   -3.97158355647730   -2.29904401771591
Cl       -4.64356324080672   -3.83114965602320   -5.16239488835900
N        -1.38028011806243   -4.14678710764909   -5.03712984551906
P        -3.04572986840872   -1.68238987218674   -6.20755243895728
P        -1.03792358819866   -1.78972626891730   -3.07555395292239
N        -3.99913519939691   -0.78684501620302   -3.42579398362827
P        -7.94683306775249   -1.17577799961973   -2.38771090093767
C        -4.46080704351346   -0.57241407439292   -5.84497740888729
C        -4.24845369705790    0.15133652301145   -4.51679945168702
C        -3.19914280486568   -0.20847751443894   -2.35254516403369
C        -1.72430580152132   -0.11302638147313   -2.74824505428743
C        -5.22980521180820   -1.40390099492370   -2.92836452905434
C        -6.21896470529793   -0.47392016977549   -2.21910114265797
C        -3.46873718039062   -2.49700159459537   -7.77494345264050
C        -2.94725042821250   -3.76667727297965   -8.00593941040982
C        -3.21726144285894   -4.41651630465527   -9.19557645302537
C        -4.00493565217955   -3.80495627078579  -10.15801104341157
C        -4.51882075535430   -2.53926184459558   -9.93110490254280
C        -4.24933074417806   -1.87930756287718   -8.74517632326388
C        -1.68925195933858   -0.58385046295640   -6.74835346709649
C        -0.47143129374159   -1.23590950782096   -6.93409522724364
C         0.64381831285306   -0.53206985195815   -7.34199409233665
C         0.55767573286473    0.83570101310410   -7.55191751172868
C        -0.64854860358265    1.48878139830518   -7.36803719568028
C        -1.77398134515770    0.78380493215970   -6.97382999942922
C        -8.00941996261326   -1.10002447369053   -4.22731074986537
C        -7.94649365610200   -2.30361873470156   -4.92290014057921
C        -7.87935864783265   -2.31400073056576   -6.30539649149575
C        -7.88905346839175   -1.11864599854426   -7.00461527188355
C        -7.97027413844470    0.08389098094492   -6.31907038822466
C        -8.02466708710089    0.09632495561985   -4.93705474174559
C        -8.94532767466997    0.31022324217583   -2.00145394426181
C        -8.55706968247158    1.26133250059759   -1.06454679682075
C        -9.39577743337109    2.31664349927100   -0.75070666380751
C       -10.63587752349551    2.42678347920150   -1.35529814637204
C       -11.04209364103437    1.46828144457612   -2.27026990932604
C       -10.20747729627539    0.41348180408954   -2.58335642713729
C         0.60670699511270   -1.45459511301938   -3.78484421665482
C         1.22866448750717   -2.50290796854547   -4.45685819800221
C         2.50528759454140   -2.34634349934808   -4.96174559008692
C         3.16725918536847   -1.13802965598005   -4.81003072374936
C         2.54811882744172   -0.09049053512785   -4.15057635771099
C         1.27497696178553   -0.24619169325102   -3.63009802901755
C        -0.55422083728498   -2.48472333376164   -1.46460688583319
C        -0.14057942209469   -3.81584449413567   -1.50799649671270
C         0.26991418247880   -4.45160636037595   -0.35381856739857
C         0.26643626420736   -3.76656735283775    0.85218883796010
C        -0.15098477410370   -2.44841170634237    0.89859268369462
C        -0.56085027009563   -1.80223675641104   -0.25630455636071
H        -2.35797302456049   -4.24086191293878   -7.22817041217298
H        -2.82050286371656   -5.40536662007305   -9.36870200070817
H        -4.22334785968627   -4.31587272246763  -11.08422196357542
H        -5.13469050744913   -2.06308850295809  -10.68055708107590
H        -4.65500412342134   -0.89137768757389   -8.58177555483482
H        -0.42761719556599   -2.29982306969168   -6.73542845269687
H         1.58223743678839   -1.04453634874855   -7.48767553514380
H         1.42964967225826    1.39315443269903   -7.85996961318930
H        -0.71765762889389    2.55429371972342   -7.53515653257468
H        -2.70837958998617    1.31303737312506   -6.85034226738575
H        -7.93338945481018   -3.23382150551853   -4.37209817976737
H        -7.80705283491387   -3.25271136183011   -6.83343616000945
H        -7.83390028540781   -1.12364718240890   -8.08366347736137
H        -7.98535821232964    1.01772453008124   -6.86442154100404
H        -8.08795296186047    1.03851080675214   -4.40787148717935
H        -7.59806215042683    1.18087016567315   -0.57301754346528
H        -9.07976980458212    3.05475384969983   -0.02706312725152
H       -11.28755258211599    3.25212159043870   -1.10892057248057
H       -12.01389103057710    1.54251084746312   -2.73662370261092
H       -10.52505271369227   -0.33934909979954   -3.29267399935173
H         0.67554706838173   -3.42402910902527   -4.59753596531819
H         2.98331384200435   -3.16472750736489   -5.47874410224267
H         4.16363064478775   -1.01052331380076   -5.20702134486172
H         3.06064227473381    0.85341764007699   -4.03401829223534
H         0.81594230445929    0.57965511552991   -3.10784739814767
H        -0.18838052264105   -4.34374578055349   -2.45364752957547
H         0.57921276180029   -5.48523032197530   -0.38878840873612
H         0.57766773900584   -4.26440827537326    1.75864902931080
H        -0.16589490388007   -1.91812239511738    1.83999695222141
H        -0.89377610767182   -0.77595676155757   -0.19414864438093
H        -5.35569932474005   -1.19966831522941   -5.82067675240171
H        -4.57815490295328    0.15617349556312   -6.65140110010969
H        -3.38057837077138    0.81043596816224   -4.61145352402101
H        -5.12418155463582    0.78921130430343   -4.31841967589748
H        -3.28095884441570   -0.87359401405744   -1.48631788511807
H        -3.57009162578847    0.78797425383642   -2.05685469595481
H        -1.59287852453262    0.46211835269745   -3.67061940963500
H        -1.15475607064307    0.37661217913768   -1.95488617029275
H        -4.94659317398228   -2.21131607327534   -2.24629627017772
H        -5.71721144267866   -1.87332571445850   -3.78648683296628
H        -5.97642466806044   -0.39919257245353   -1.15581930409317
H        -6.21171811488804    0.53516756831514   -2.64424726034842

