28
CSD_code = BAPXIZ | q = -1 | S = 0 | Stoichiometry = C8H10Cl3N4O2Pt(1-) | MND = 4
Pt        1.44925124925653    2.45892619534920    0.54808477128712
Cl        0.70742278133286    2.74089061644466   -1.63410288213934
Cl        0.37778515589953    4.29901951523585    1.25822801770938
Cl        2.25241823431524    1.94985641777511    2.67137074778154
N         5.96196270072837   -0.23359179586814   -1.66900383176195
C         7.23660061884649   -0.59948395207638   -2.26083320054755
C         5.66511475192590    1.12790399020674   -1.71760350322075
O         6.44983020042552    1.90443071465084   -2.22084948531208
N         4.46729509700295    1.53404210964349   -1.17874048637048
C         4.11089234403426    2.93864851525700   -1.20843636406259
C         3.64227575153297    0.61040434942801   -0.62215277350162
C         3.97236798659929   -0.73878136263039   -0.57674982365711
C         5.18776369457633   -1.25395321088083   -1.12461531777232
O         5.54731620287815   -2.42166927022412   -1.14287200524476
N         2.93096006087123   -1.36393940783051    0.06504740918119
C         2.84114979181993   -2.76498729387054    0.36694271152719
C         2.04523232653197   -0.40203852295812    0.37258936453935
N         2.43840792281844    0.79606627139823   -0.03087552308822
H         1.12630111614732   -0.58208128673631    0.89632498805320
H         7.34200515246578   -1.67796617017469   -2.16828048208140
H         7.25601657627515   -0.30069134338002   -3.30863637912568
H         8.04618148686640   -0.08975483003097   -1.73890850953100
H         4.98243242885073    3.49878428064117   -1.53928342202983
H         3.27406167298939    3.09739955076045   -1.89274057109705
H         3.80772516508603    3.26158379032862   -0.20461356122459
H         2.77527329023055   -2.91368228257527    1.44585025573660
H         1.95870091304982   -3.19911529161885   -0.10639070687532
H         3.73715532663792   -3.25192029626108   -0.01554943717221

