62
CSD_code = BAPYOH | q = 0 | S = 0 | Stoichiometry = C30H27ClIrO2P | MND = 8
Ir       -4.21380302359103   -3.10334137897616  -14.87437353951911
Cl       -2.13174489293118   -4.19909566873874  -15.19127459601557
P        -3.17468110721713   -1.82526010098766  -13.37424039784791
O        -4.14979058524478   -1.46349292612428  -12.14510451241679
O        -2.73224136593730   -0.29974563361795  -13.75316766471248
C        -4.56739463595322   -4.23517603751821  -13.19186882674294
C        -4.61489298629724   -5.59259162795299  -13.42169424832178
C        -5.22787450509781   -6.47747704699836  -12.52534880979689
C        -5.84570398033882   -5.99803726623332  -11.40632457819731
C        -5.78992436837949   -4.62595013237505  -11.09272675562469
C        -5.08550543325484   -3.73792687804303  -11.96263048794133
C        -4.94737921047602   -2.39638211233106  -11.51426687774475
C        -5.56671285998265   -1.94747739253198  -10.37450923896679
C        -6.32689181460204   -2.81669358160952   -9.58513259110414
C        -6.41098933635532   -4.13566514483848   -9.92491531349466
C        -1.58362776719612   -2.21386505604935  -12.56975800387865
C        -1.05215900960954   -3.32874703154461  -11.98073699356271
C         0.25808576309800   -3.24963390915510  -11.47432566341467
C         1.01646522486182   -2.10725338270702  -11.56224227650909
C         0.50164830541664   -0.94803052993969  -12.18056447635767
C        -0.80808295945420   -1.04703077846536  -12.67386367920365
C        -1.45256255863713    0.01240997308711  -13.33579915608759
C        -0.80259175020542    1.19837728285162  -13.52000293005426
C         0.51350708594416    1.31324938569270  -13.02227521436479
C         1.15507103521083    0.29027039015622  -12.37523003125588
C        -5.42063856793045   -3.88088454811659  -16.57946759482171
C        -4.68888831124689   -2.73267929477526  -17.08749167337646
C        -5.09959994899746   -1.60088054700622  -16.37502466841740
C        -6.05943626000499   -2.03259006615350  -15.37762773023457
C        -6.33587983772306   -3.42076736878919  -15.60126523536367
C        -5.39419575605406   -5.23006353959286  -17.22476268009427
C        -3.75835814457418   -2.80345988102785  -18.25377384654460
C        -4.72298061290790   -0.17484460845273  -16.61893489388211
C        -6.87053975829623   -1.10809449381570  -14.52681359124579
C        -7.43100232177982   -4.20536163177272  -14.95235192255896
H        -4.17783008949601   -5.99847558108502  -14.32273674737325
H        -5.23936370215694   -7.53411693386305  -12.75024570110786
H        -6.37669421325295   -6.66028960689659  -10.73819619159976
H        -5.43256049165570   -0.91670177625835  -10.08577250738150
H        -6.81080657092148   -2.43957428042076   -8.69725585755897
H        -6.94814453826712   -4.83285523305590   -9.29878667101369
H        -1.61306990977809   -4.24818398043544  -11.91711234567632
H         0.67891712873337   -4.12773410236235  -11.00691553809862
H         2.02163915428545   -2.09089521957558  -11.16695873725580
H        -1.27022584202524    2.02712930693656  -14.02642980462918
H         1.02505377202570    2.25315886408160  -13.16726349041987
H         2.16442160413947    0.41918026419178  -12.01474344683259
H        -5.94131607214951   -5.20403399749110  -18.16960070554601
H        -5.85254302189879   -5.98017588816921  -16.58442081077877
H        -4.37009636264853   -5.53295303545959  -17.43492934826393
H        -4.30221262241013   -3.11521269266067  -19.14714437218606
H        -2.96872591255886   -3.53115194982718  -18.06781447559046
H        -3.29438408734750   -1.83960610399331  -18.44794573535703
H        -3.82579237703173   -0.10464632914082  -17.22937773915968
H        -4.53576700860448    0.34468312814384  -15.68042271604941
H        -5.53459735002409    0.34059817441386  -17.13691399503647
H        -6.26496452613184   -0.27450820725463  -14.17564900659969
H        -7.27311602431728   -1.62785660548047  -13.65942401985157
H        -7.70620048760365   -0.70410229544563  -15.10208276039452
H        -8.36239238933114   -4.05997600370814  -15.50301638556857
H        -7.58955144815416   -3.88505273063168  -13.92433375185888
H        -7.20098035564365   -5.26805462004388  -14.94191643907760

