79
CSD_code = BAPZOI | q = 0 | S = 0 | Stoichiometry = C29H43BCdN2S3 | MND = 4
Cd       10.32697958640030    0.95595474745288    8.00180223235941
S        12.61339060622982    2.12297405707741    7.35393715746229
S        10.68169546147633    0.16406975439791    5.42699244087935
S        10.30207823758725   -0.57066774660964    9.92641162852006
N         9.00310405350968    2.66936838764047    7.42264303438586
N         9.19401498160226    3.12019252640929    6.17267486005453
C        11.77709513642263    3.50414504438680    6.49433806954022
H        11.38319411757036    4.15920336460478    7.27142326881808
H        12.57583310028973    4.03630933116681    5.97628491837489
C        10.76323042022494    1.77700689226211    4.55907365103843
H        11.75408387457296    1.75858965421002    4.10317217660284
H        10.03126405131055    1.70723513082030    3.75597550196780
C         7.71993417576005    2.88008434440891    7.74866120317330
C         7.07258760616774    3.47920914180948    6.66668458416321
H         6.04967560971873    3.78342075572758    6.59155305504992
C         8.04621148715052    3.60867730159999    5.69653711751961
H         7.98019348451842    4.02700681102201    4.71225660068093
C        13.32644312802219    2.88077630219747    8.90527003762680
C        14.25109771334661    1.80761973746333    9.46989236910009
H        14.71113843864048    2.15810692600760   10.39174800323131
H        15.03667448588198    1.56806972410824    8.75724470488787
H        13.69811906321200    0.89459993375336    9.68552818663648
C        14.11602585102430    4.12980547498670    8.53602332435341
H        14.64265831337138    4.50276382228174    9.41288787288339
H        13.46432163778840    4.91955575676342    8.17020776967481
H        14.84968430088416    3.90064556198489    7.76634207150913
C        12.20799288101306    3.19517121330255    9.88961348748266
H        12.61988440497581    3.68800399149230   10.76968988278001
H        11.71529774186158    2.27458944059740   10.21569914637409
H        11.46468465377701    3.86134341442720    9.44977029078201
C         9.10509413271639   -0.68182400364497    4.89593495048274
C         9.02740473846190   -1.92108746342740    5.78330927511537
H         8.14471261828997   -2.50579225338326    5.53156069747115
H         8.96628679866818   -1.63974767272289    6.83882235464482
H         9.90784017517180   -2.54532259061465    5.64399898434190
C         7.89704723111631    0.21279693288520    5.11915116832447
H         6.99340476580378   -0.31210773291777    4.81139396823854
H         7.96735966173101    1.13085665378175    4.53971283478595
H         7.79908347758770    0.47151334883577    6.17481719911620
C         9.24323305879357   -1.07650200047381    3.43063387595067
H         8.36767479465148   -1.63943820694093    3.11235710396461
H        10.12594125197459   -1.69519531818918    3.28704635056465
H         9.33109374001281   -0.19843410574836    2.79443861281412
C         7.13578901630266    2.50389591425084    9.08682577485263
C         8.13517202832585    2.80091521151471   10.21067672636498
H         8.44817338360957    3.84273488285540   10.17369948753344
H         9.01611045128116    2.16109326389772   10.13153503779692
H         7.67067894051392    2.61392766199911   11.17631111139321
C         5.85650786013879    3.31157226618989    9.33595194291242
H         6.05666263711277    4.37830794745658    9.26710566021744
H         5.47156695927240    3.09642976874043   10.33016507714168
H         5.08685332499188    3.05442563360228    8.61298545654617
C         6.78538443184106    1.00828728408633    9.08858366751167
H         7.68379954203307    0.39566289607847    8.97538965315699
H         6.09426023593489    0.77822771515927    8.27904781134860
H         6.31329191004066    0.73963409339201   10.03083141385508
C        10.17066283002200    5.69627033067754    4.96141845636367
H         9.88333754230159    5.77053435896147    6.00233551000362
C        10.15936997084808    6.84131924025678    4.18731894128610
H         9.87260711896794    7.78737367931847    4.62599617272578
C        10.51579929502581    6.77752199162374    2.85113217619835
H        10.50828542997078    7.66850149300587    2.23955194307289
C        10.88412695587229    5.55925289117459    2.31078750428665
H        11.16891886779889    5.49459368230533    1.26946203637592
C        10.89096518671819    4.41979305430034    3.09832416324738
H        11.18947953449489    3.48551876907470    2.64536754482493
C        10.52826249276438    4.45035285243863    4.44207330501123
C        12.56190640487421   -1.43476442704876    8.58977368793111
H        12.07561599406840   -1.13945283123368    7.66321473533955
C        13.82596626263754   -1.99326516049816    8.55448169534364
H        14.32304111467345   -2.11588737187198    7.60323996726807
C        14.45085753537889   -2.39448976388474    9.72378113086502
H        15.43870039777773   -2.82895138942892    9.69026456755981
C        13.79735575444589   -2.23964265106915   10.93610328745576
H        14.27412292104539   -2.55540351539136   11.85276512649273
C        12.53640368807602   -1.67918511481066   10.98270122202314
H        12.02074401533395   -1.55342944597332   11.92319659283496
C        11.91014652093354   -1.26325168220918    9.80895806780097
B        10.56290839503509    3.15863008580200    5.42762732140991

