95
CSD_code = BAPZIC | q = 0 | S = 0 | Stoichiometry = C34H52BN3OS3Zn | MND = 4
Zn       15.74789701372605    8.19260824684874    3.49824066170796
S        15.13380668308160    8.71511272711493    1.10378404415045
S        17.48345109178670    6.69199497921915    2.51101438798263
S        16.59497323762691    9.98708296341282    4.72157264539446
O        15.29243631303948   14.95941032692885    4.01534832360875
N        14.21503213218915    6.88591441838487    3.87510361825895
N        13.86537174519739    6.13429807472201    2.81570196904802
N        15.78541335524951   12.78772210495599    4.47165250716327
H        15.68353856567359   12.04482360690827    5.15610400367927
B        14.79632655219562    5.77849540399382    1.61979774324850
C        12.61790116838221    5.69759880573649    2.98034266547205
H        12.13846681983567    5.08282240174766    2.24625499576620
C        12.13755271850719    6.16354450963509    4.18839802459405
H        11.17114597431935    5.97698305413380    4.60622693933967
C        13.17959165309439    6.91228368157518    4.73014922824933
C        13.19642444507557    7.65202324447564    6.04112329530733
C        14.52209221532220    7.41300371648325    6.76995842713308
H        15.34996235950519    7.85825489151566    6.22173237285984
H        14.70737273682631    6.34769034169293    6.88575943669874
H        14.49085794521910    7.86856142626892    7.75671029879729
C        13.01539752098707    9.15291858389977    5.77979749920930
H        12.07522177832579    9.34350352106636    5.26555507935178
H        13.83556612391265    9.53079850829840    5.16969785430978
H        13.01081464525144    9.69458459006435    6.72264707378723
C        12.04734224878102    7.16114193665422    6.92845037567221
H        11.08383664419662    7.39076391437028    6.48096410713612
H        12.09576727344336    7.65352368631358    7.89685936893917
H        12.11410948503534    6.08722911820590    7.08510489839273
C        14.79777998588715    7.00610565741246    0.52788805034085
H        13.84676888816283    7.07003758166507    0.00311249263822
H        15.57304102553149    6.84232929946569   -0.22177027402658
C        13.52013773658611    9.65114232822894    0.98193037307963
C        12.38786624962960    8.91095560700768    1.67253795540395
H        11.46896489846432    9.48708143725403    1.57387213206994
H        12.59772472704513    8.78647929677828    2.73281943165055
H        12.21953950540774    7.93020339292903    1.23367419429817
C        13.22901600106449    9.86297438601995   -0.49814770089576
H        12.33277655872338   10.46903308809012   -0.61564207899611
H        13.06764773646264    8.91582727311522   -1.00842450928726
H        14.06053928013335   10.37582182922526   -0.97552898404155
C        13.79443765527933   10.98257023140715    1.66994692086059
H        12.92747120925150   11.63383833641734    1.58163676288387
H        14.65043119351424   11.48119581137517    1.22054621518025
H        14.00343380066444   10.83353758431643    2.72860763611861
C        16.29072696870092    5.35461395303910    2.17344420930971
H        16.78691052116830    4.71079208127710    1.44650342271586
H        16.18443728207659    4.79269586417328    3.09975373168748
C        18.60002075184684    6.05436829907619    3.86984769797880
C        17.81508065939362    5.86253234618229    5.15655116866276
H        18.47152234922602    5.46606609203495    5.92956848942037
H        16.99145445116721    5.16295828506068    5.02658831569283
H        17.41518677745441    6.81475174719650    5.50481447066944
C        19.65320682092018    7.14246310342885    4.04222494168340
H        20.37383932973042    6.84439680901658    4.80094427236783
H        19.19246169871158    8.07715701386254    4.35677135682825
H        20.18254281871543    7.31410219648039    3.10782285200079
C        19.23201883116197    4.75277787412281    3.39631744032398
H        19.96166235061816    4.41171358165192    4.12856444298872
H        19.73991304515379    4.90060260072737    2.44594690583215
H        18.48424216136913    3.97289342984531    3.27195896865211
C        14.23876654252166    4.40876959749837    0.94819451985920
C        14.02067975288560    4.24468245059144   -0.41701193076111
H        14.18654002345982    5.07369523636569   -1.08942724690042
C        13.59667775138277    3.03970281122492   -0.95255254823354
H        13.43452019866890    2.95308077966582   -2.01812178575640
C        13.38217863893686    1.94869832012888   -0.13071537289942
H        13.05077721928155    1.00725544958249   -0.54474674795175
C        13.60182617121832    2.07744900009841    1.23000516321915
H        13.44407346421014    1.23232598112129    1.88600290603549
C        14.02516858697279    3.28584199056970    1.75075224631959
H        14.18627939403424    3.36124421103858    2.81857885625443
C        16.99188713403508   11.05238829185143    3.35696905710015
C        17.74893263349763   10.58977104460991    2.29473358795050
H        18.10654763596167    9.56910405208783    2.29462161493135
C        18.04623816732497   11.42777401584190    1.23471123208372
H        18.63051601983241   11.05347251849043    0.40797352273262
C        17.59468198023234   12.73592431007465    1.24326561981300
H        17.82395797785137   13.39411601015497    0.41862985340864
C        16.84993843223858   13.21352122488343    2.30682619361781
H        16.49696706743723   14.23098563915508    2.32310700678324
C        16.54231214607621   12.38228744890923    3.37755073793187
C        15.22171303114611   13.99238206822874    4.74312782371182
C        14.42898602106631   14.00169055213839    6.06211352339916
C        15.25995369018862   13.43730248696149    7.21942699006294
H        16.22569237166666   13.93516939310507    7.27330086327562
H        15.42925679385485   12.36640625542624    7.12626377091867
H        14.73584255761197   13.60832779600568    8.15788097324148
C        13.16450195919697   13.15931862546019    5.85200322215558
H        12.55827431585447   13.16735717867335    6.75571079444345
H        13.41104030772494   12.12684789895417    5.61435106761353
H        12.57170592155410   13.56824779931842    5.03644705961004
C        14.03739083494534   15.44620392927736    6.37647915099417
H        14.92577528109918   16.04349342884495    6.56577833531247
H        13.39385578316771   15.48370769304599    7.25237834593794
H        13.51317047737444   15.88484330774618    5.53175844693509

