113
CSD_code = BAQCII | q = 0 | S = 0 | Stoichiometry = C39H66N2O5Ti | MND = 6
Ti        2.18472635671277    6.22438097141563    4.66387340421614
O         2.36899637336267    7.40312124069493    6.05995668556162
O         7.09776960973594    8.58929437915616    8.65109078494879
O         1.76351373961773    4.57982668672373    3.91343881441062
O         1.05290816073440    7.15519744151686    3.75228273004622
O         3.75052347490351    6.39366137633740    3.99841392784720
N         2.90718478256773    4.80741154670883    6.38494195932449
C         2.09157686257345    4.91500375991195    7.59514176093911
H         2.19175152544414    5.93060448647905    7.98511180268955
H         2.45807193431811    4.21315580153273    8.36766081856266
N         0.04352598324374    5.54978727328378    6.34917489953370
C         4.26635523215451    5.28227418959746    6.65012474745680
H         4.84762842754703    5.08072685457519    5.74030489914547
H         4.70747545496660    4.67790008895393    7.46790442930860
C         4.43390413874866    6.73701486707181    7.01604700763640
C         3.49414639260647    7.73284346759906    6.67032452128384
C         3.78560022488981    9.07464466283581    7.04332072494095
C         4.97690847983702    9.36310086836234    7.69342486621330
H         5.19242838849986   10.38120657192730    7.96360158639294
C         5.89811771506929    8.37642245849794    8.01042984736156
C         5.60865488257546    7.06423904134901    7.67328113309209
H         6.32525859485390    6.29727280350676    7.92828707936303
C         7.43342620898301    9.90414783046949    9.00726919762569
H         7.50191085147665   10.55730657342328    8.13025057367982
H         8.41146395515207    9.84113331433239    9.48294109005310
H         6.71525110607814   10.32818837352165    9.71805741140772
C         2.78497720943560   10.19001340704165    6.75057787436407
C         2.49840269698734   10.24391803755087    5.24454545441118
H         3.38306670935463   10.58377159561076    4.70737667249980
H         1.68758253540865   10.94170145915450    5.04030831033253
H         2.21625357024720    9.25453898472907    4.88586741854795
C         3.26398562269777   11.57997491266148    7.18528893782517
H         3.41426727845215   11.63079600574878    8.26136729146946
H         2.50347186600209   12.31267497846277    6.92076963777434
H         4.18563438613106   11.85953607050258    6.67973195503214
C         1.48944915503006    9.87740319172266    7.50902765266843
H         1.10675542296899    8.92062798429317    7.17349498741804
H         0.74166010240863   10.64592695887112    7.32135253934869
H         1.68027858294724    9.83189365228496    8.58006598420108
C         0.60971320444844    4.62552386656459    7.32883027091626
H         0.49346191882325    3.60083050181291    6.96733528342746
H         0.07641467128598    4.68390040982630    8.29275161086556
C        -0.83072077957176    4.88299278804189    5.38103327002486
H        -0.24871180735624    4.08046561070941    4.92006672717641
H        -1.05564666950056    5.60471630663598    4.59288124686152
C        -2.13641385859999    4.30107319004186    5.94063703132522
H        -2.63949613844367    3.73773256660640    5.15879788218084
H        -2.81205468493405    5.08271156916647    6.27903467327687
H        -1.94316194121441    3.62751992149274    6.77343485086339
C        -0.61827658588394    6.64891857209568    7.05419896465237
H         0.12526324493516    7.08443098574260    7.72659152187375
H        -1.44687937884420    6.27024146379446    7.68013421809299
C        -1.12915131509879    7.73730277678196    6.12351273838075
H        -0.33782073978165    7.97342623034837    5.41676484610769
H        -1.38132194556916    8.62551664901882    6.69841101730650
H        -2.01776473688042    7.42061066833366    5.58257893094630
C         3.02813740685107    3.39364084902601    6.00167085977608
H         2.03767341130265    2.93134040133202    6.05331965348943
H         3.68261066015238    2.86450242646876    6.71805399576194
C         3.52049864063276    3.18785649756857    4.59781446282626
C         2.73604319585130    3.75614643352231    3.57285777558285
C         3.00758904187742    3.34685398868935    2.24215807312482
C         2.11563375520581    3.81502832681307    1.09878034729607
C         2.30297706451916    5.32853824472108    0.94293874328681
H         2.10019969318321    5.81837486471999    1.89849449462101
H         1.62877113329637    5.71355043243847    0.17762912480071
H         3.32676318874079    5.54828877097410    0.64189298115530
C         0.64958038518214    3.50981535462687    1.43682747796222
H         0.51479213988601    2.44111821781308    1.59499576074212
H         0.00036504746864    3.82271704381224    0.62019608562767
H         0.35940507473852    4.04002133583046    2.34072882233000
C         2.43824254458733    3.14144324409785   -0.24000919148634
H         3.43528729746061    3.40178982095247   -0.58815257014213
H         1.72692680816928    3.48085014699103   -0.99110958265516
H         2.35723712221188    2.05935661754731   -0.16378352337017
C         4.10555574395229    2.53333724452791    2.01514776219076
H         4.32771838059288    2.24601003590489    1.00129631460267
C         4.94787457564369    2.06248234922870    3.02009803330539
C         6.16018233745059    1.22150582931455    2.64966107625879
C         6.98719569163608    0.81747173448280    3.87319037198421
H         7.34195295136909    1.69498602095139    4.40838437478116
H         7.85481603281099    0.24314282743374    3.55361993074144
H         6.40563378653639    0.19695598257878    4.55090882165601
C         5.69812665582841   -0.05908344975064    1.94070369282825
H         5.03875955926303   -0.63037950386302    2.59067709611525
H         6.55515315254801   -0.67925317849378    1.68487472940439
H         5.15834463252463    0.16996410623148    1.02628837439380
C         7.06639509392351    2.03359898925405    1.71303278492482
H         6.55291296628784    2.28793630238537    0.79020641901659
H         7.95729392541056    1.46166483878407    1.46040858267210
H         7.37291057188038    2.95828187620705    2.19720880350244
C         4.60986699673973    2.38026740250229    4.32592207271911
H         5.17655277034079    1.99243131904781    5.15888843787131
C         0.54970271279318    8.12546837979274    2.90323935272357
H         0.15633991724483    8.96801446710172    3.51242883841669
C         1.63349330401933    8.70527087506844    1.97601173946191
H         2.53191670886259    8.90669254882829    2.55776289392959
H         1.28332049222852    9.63302610366118    1.52823509073526
H         1.87692839348751    8.00159858404350    1.18468043858255
C        -0.61730338601533    7.56157361372752    2.07415707979035
H        -0.28534867951273    6.67593457598433    1.53809900901766
H        -0.97063903051272    8.30550196994849    1.36434129159991
H        -1.43944944674499    7.28102002723948    2.72916137270089
C         4.77510108622281    6.87585865616675    3.20855352833314
H         4.35127874401962    7.24872732850483    2.25295116001270
C         5.50037042195766    8.04132395528063    3.90123221176077
H         4.78159112798974    8.81128934059515    4.17209641585840
H         6.25221008487100    8.46455184623568    3.23888020797677
H         5.97997066159301    7.69087207697812    4.81343145870865
C         5.77558455852112    5.75505783919936    2.88087624491096
H         6.27150787782038    5.42459471503238    3.79203024436414
H         6.52680718510033    6.11407045981336    2.18123715575500
H         5.25094137746135    4.90694064668843    2.44694629244260

