71
CSD_code = BAQDAY | q = 0 | S = 0 | Stoichiometry = C20H40N6NiO4 | MND = 6
Ni        0.00001642796075    0.00018516524888   -0.00016694724165
O         1.47153635398751    0.40858462569747    1.01481245544804
O         2.18955004113830    1.63676073319741    2.63368626978796
N         0.15065847325164   -2.17104291320692    0.53388947570280
H        -0.52202701519574   -2.58160585935320   -0.11492001851292
N         1.29353881080475   -0.03092746719609   -1.73121387468895
H         0.76156005314397   -0.39945796453201   -2.52178913133306
N         1.24346084564858    1.27292193981778    1.93162094349186
C        -0.41513182509809   -2.29092302016689    1.88052020422932
H         0.33939472221950   -1.95189462783212    2.59656757879674
C        -0.82168506525330   -3.73572430847503    2.20195340522234
H         0.05271860604120   -4.38406210155643    2.11852617843953
H        -1.55805898752621   -4.06879779570801    1.46519412201223
C        -1.41507908219907   -3.85806257668640    3.60037201010908
H        -1.69610109402410   -4.89495467435745    3.79355971046676
H        -0.66521544566391   -3.57080907060212    4.34084658493846
C        -2.63213546147287   -2.95150554423901    3.73134366775539
H        -3.40428419267821   -3.27353874137761    3.02933072673140
H        -3.04577560417286   -3.02064677364718    4.73910511074380
C        -2.24281920638402   -1.50862052587046    3.43128798020580
H        -3.12131141611469   -0.86805787333650    3.52911875856859
H        -1.49940808577185   -1.17526301291613    4.16070538147865
C         1.65578695000493    1.36051536777017   -2.02169109118936
H         2.40221396724339    1.66656066575506   -1.27956599720827
C         2.39221827813506   -0.95916061050546   -1.45011593981616
H         2.93592578769272   -0.58762146744557   -0.58119921703829
H         3.09055979684601   -0.99806243665662   -2.30051383914203
C         1.89414015656008   -2.39526300103602   -1.19896557796683
H         2.71040335183425   -3.07078897335341   -1.46466738714793
H         1.06525047167750   -2.59480232197597   -1.88238938996365
C         1.44740872464172   -2.79553468365119    0.22887154044163
H         1.32713843994774   -3.89499761877384    0.19897109911252
C         2.51553713822318   -2.47913794442074    1.27080854524173
H         2.32980076398253   -3.02001900184725    2.19554483269286
H         2.53294658171869   -1.41578728085204    1.48307975616809
H         3.49044040619947   -2.77933881799246    0.89548469591344
O        -1.47095397951481   -0.40725631095793   -1.01569609978721
N        -1.24396102710179   -1.27648109581067   -1.92820576786071
O        -2.18948760615732   -1.63880763747854   -2.63175559636625
C        -1.65603520573875   -1.36060020919270    2.02122078179521
N        -1.29364490317821    0.03079364788035    1.73070328182346
N        -0.15032917929911    2.17148023682993   -0.53379196698206
H         0.52256792033778    2.58218860665799    0.11468563837637
C         0.41503244211279    2.29102113529458   -1.88064724306117
H        -0.33983011620302    1.95201696334788   -2.59633986247487
C         0.82169254159266    3.73573620754992   -2.20236369355176
H        -0.05263351993711    4.38416715482165   -2.11882673133033
H         1.55825222363187    4.06882557827547   -1.46579662710677
C         1.41482690240610    3.85790842253258   -3.60091255967789
H         1.69589183389215    4.89476297071965   -3.79422847578090
H         0.66479761680342    3.57065606958806   -4.34121861934076
C         2.63177134270801    2.95123376902811   -3.73205419597956
H         3.40406272514524    3.27316222450516   -3.03014996348423
H         3.04528081888586    3.02028653886601   -4.73987369514266
C         2.24224149403681    1.50844442434708   -3.43189899210431
H         3.12053866286042    0.86764373844041   -3.52995995594398
H         1.49854655883440    1.17526882569271   -4.16111486280284
C        -1.44706135836610    2.79597398960536   -0.22849075157827
C        -1.89370973484418    2.39544207595079    1.19931534921946
C        -2.39216079264898    0.95943145494876    1.45030297788052
H        -0.76109648254855    0.39910949018359    2.52103393907633
H        -2.93646218629841    0.58831810241423    0.58156464437886
H        -3.09004503607236    0.99842233330051    2.30107603932970
H        -2.70978018135902    3.07111275513405    1.46525145619761
H        -1.06473109333125    2.59464639689151    1.88273965983629
H        -1.32666977777633    3.89541546180985   -0.19833663903363
C        -2.51530009702348    2.47985293961507   -1.27039289013177
H        -2.33000608282877    3.02148088041202   -2.19477961804828
H        -2.53224065564009    1.41663357353068   -1.48336158556287
H        -3.49025213399515    2.77934360159399   -0.89464926460188
H        -2.40228460073363   -1.66675380424466    1.27894926737116

