28
CSD_code = BAQGUV | q = 1 | S = 0 | Stoichiometry = C6H17ClN3Pd(1+) | MND = 4
Pd       -3.68233573154835    7.08917417290295   11.32295882452620
Cl       -5.34771969149116    6.12772975257723   12.47534455010929
N        -2.65405943425619    7.08572086755760   13.11675149507739
H        -3.28321472812968    7.49813364228908   13.81325413772698
H        -2.65436614843222    6.07346420230382   13.29878230983730
C        -1.29268136641642    7.62032984710263   13.24453206159989
H        -0.75459142431734    7.09994151185365   14.04447353953643
H        -1.34728218848402    8.67973562335302   13.50880680739305
C        -0.52007591303782    7.46338090824753   11.93210371572791
H        -0.65082158784305    6.44304129806559   11.55172029100461
H         0.54014401459193    7.61062400355636   12.13543264865985
C        -0.95962521262322    8.47694579969768   10.87209183974684
H        -1.18696161002024    9.43116938217568   11.35595297157654
H        -0.13616922787455    8.64636374407556   10.16714458655454
N        -2.15567322811526    8.04049926402275   10.13756351920927
H        -1.86050871832780    7.30809834738875    9.48359836829312
C        -2.72906091168828    9.14542071132379    9.34951654154324
H        -3.18508520150063    9.85897325206731   10.04639914485430
H        -1.92593054379454    9.66242592670939    8.80783880728337
C        -3.76970313211578    8.68132111552708    8.33022401310243
H        -3.34923774739674    7.88787084524011    7.70532781865324
H        -3.99415223231311    9.52479190250693    7.67705488334782
C        -5.08032933179831    8.20116718155767    8.95501860865501
H        -5.45100351442686    8.94659930566043    9.66981638526673
H        -5.82899084512163    8.08484759861750    8.16186555457945
N        -4.89413949282856    6.93329968878554    9.67226494039631
H        -4.61756435761181    6.19344855457622    9.01900822378432
H        -5.77666049307858    6.63848155025798   10.11125341195423

