66
CSD_code = BAQHAC | q = 1 | S = 0 | Stoichiometry = C18H40N5NiO2(1+) | MND = 6
Ni        3.96115339196822    2.27730195029116    3.85236912460592
O         4.65691340289922    3.61403038521557    5.41273204544323
O         3.01988380264534    2.47902139807365    6.08162095274826
N         3.08829543623279    0.52107719581355    3.02303435606971
H         3.50725368041021    0.52535290525988    2.08997407943433
N         2.31175167025227    3.24029979586865    3.33878651166382
H         1.76381395567481    3.17932728715807    4.20289512984455
N         5.15003762888407    3.33950903767530    2.20321999490545
H         4.96743828134234    3.05511048925468    1.23994382465381
N         5.60590633136851    1.29635999203345    4.21825206126271
H         6.01775945311532    1.86323692657712    4.96698092616870
N         3.88604171637007    3.31390866298522    6.33503783114129
C         1.67096527404223    0.89610302819026    2.84979910551712
H         1.19931457434508    0.28460464846531    2.06589580483331
C         0.87493651744269    0.73326029506706    4.14429635807180
H         0.65284421478950   -0.31207531074036    4.33700195255433
H        -0.07412863846112    1.25656226075058    4.06011927120527
H         1.42500949022798    1.13050137938156    4.99502197227976
C         1.65343656222987    2.35059977856541    2.36609637013382
H         2.17855702595338    2.42495717219382    1.40936591723494
H         0.61097117273360    2.64065485652172    2.20619752040034
C         2.29840732086573    4.68227361534752    2.95861898056799
C         2.49647254656538    5.52477356458721    4.22113878578750
H         3.42826722133345    5.29414135079051    4.72392964294141
H         1.67829262949305    5.36116865907336    4.91967633537671
H         2.51269883146006    6.57941128796925    3.96330815593792
C         0.93585184458036    5.08618423033565    2.36772879862442
H         0.78097856958887    4.68711641799479    1.36892750166088
H         0.89012848357423    6.16899992193588    2.29605425041140
H         0.12061319371904    4.76746682079702    3.01378280411092
C         3.37902074008268    5.00228552615910    1.90929342220152
H         3.17634056597641    4.43684419912919    0.99606731210836
H         3.25583620233913    6.05528071422703    1.65840215678905
C         4.84570438584293    4.77795318674587    2.31062837753579
H         4.99658606498007    5.05245580089650    3.35817146063937
C         5.73334592998968    5.68075634230707    1.44886771530612
H         6.76345662573400    5.66334229069666    1.79122005555854
H         5.38897818357071    6.70829920340435    1.52591389907320
H         5.69321332990149    5.38753907859629    0.40152337708790
C         6.52166699703509    2.91864515009330    2.53729284768952
H         6.87923242808194    3.57183930853381    3.34042599684665
C         7.49006384268469    2.95034377241861    1.35075085776675
H         7.59851542050061    3.94442981911572    0.93491504124873
H         7.14150206590413    2.28592138268949    0.56138270219845
H         8.47461096070132    2.61391309767451    1.66434524424197
C         6.47984862219702    1.46790104952464    3.04699074112895
H         6.11941974240573    0.83088361496103    2.23555702998608
H         7.50281742471159    1.16586167237875    3.28938625838545
C         5.55166323740429   -0.09241771015990    4.75148501239515
C         4.83359920921306   -0.04540781686556    6.10155368362275
H         3.88688101319008    0.48698038783853    6.02696284082761
H         5.45055759005140    0.46068349588915    6.84125589152988
H         4.63516257840340   -1.05113709714827    6.45947865546004
C         6.97071089237914   -0.63286247579006    4.99267970435842
H         7.46721354387801   -0.91016729321519    4.06657526889464
H         6.91291674653334   -1.52189340393277    5.61404036831890
H         7.58073458576316    0.09827975118832    5.51917232561749
C         4.83308891882515   -1.04587645858043    3.78014962469309
H         5.32924610340387   -1.02651649614797    2.80761166159881
H         4.95963571378152   -2.05382845594645    4.17569106078766
C         3.33029526698461   -0.81773569791073    3.58157002589658
H         2.83389592233134   -0.86973965151524    4.55157761682443
C         2.77842940986009   -1.92234561532408    2.67555841873103
H         1.69772624541245   -1.86069563159223    2.58493715320945
H         3.01788182235029   -2.89643827939939    3.09147400341240
H         3.21533608195032   -1.86291676437393    1.67988582243752

