40
CSD_code = BAQHOR | q = 0 | S = 0 | Stoichiometry = C12H22Cl2N2PdS | MND = 4
Pd       13.31417595984425    5.12431274762671   11.80552430993463
Cl       14.66895547415221    6.34307894017741   13.07753816013066
Cl       13.14001586909797    3.53097719108552   13.39064272872437
N        11.50997491749425    2.88568889382783   11.00312681262054
H        11.76103776742154    2.50971228176700   11.92329083380953
N        12.13642871962949    4.00036075304157   10.64925177475657
S        13.13629071827007    6.67438096209934    9.98448239279598
C        10.64048395448878    2.49360050539810   10.05698857009002
C        10.72330444197970    3.43364666109588    9.03839147381423
H        10.17746515581457    3.44911264864044    8.11808120991025
C        11.68089651245895    4.36601473595351    9.45747749767619
C        12.23597641665400    5.58013876024219    8.80181222585536
H        11.46904350059314    6.16524654494905    8.29766253005695
H        12.99617739776086    5.30306793927655    8.06647636549885
C         9.76457747550334    1.28166729617893   10.18441311745364
C         8.32401548844362    1.75401378977254   10.42707662489149
H         8.26469922264619    2.34006502171629   11.34133133297819
H         7.66328953387152    0.89653823043370   10.52370234331299
H         7.97582450977831    2.36754970858942    9.59980271996929
C         9.83350810942447    0.47069043228679    8.88529015562939
H        10.85630419950646    0.16115576916564    8.68418877689745
H         9.47780493111750    1.05612822401210    8.04190920513101
H         9.21436750197578   -0.41865329417048    8.96986275560257
C        10.22322429539676    0.41141421520977   11.35724615074372
H        10.12041457511640    0.93843230791286   12.30271300280076
H        11.26032463523325    0.10880995585605   11.23349528834428
H         9.61174370139372   -0.48613748639647   11.40556138289782
C        11.80844688369567    7.77799699935188   10.71085737580287
C        10.82426135906478    6.96582162494613   11.54552850459969
H        10.08350081138759    7.63682691528764   11.97941410003912
H        11.34771425291850    6.45422320296649   12.37708515819358
H        10.29518547609611    6.23066878274473   10.93694978084001
C        11.10301669804909    8.52442472488035    9.58586643152259
H        10.51438493988122    9.33616753469481   10.00857738754488
H        10.42420518189808    7.87964298631294    9.03142725393163
H        11.82708063342328    8.95278062056438    8.89682254790711
C        12.59269432517802    8.74537657929845   11.58995020241785
H        11.90991635733200    9.40589435601144   12.11976418086257
H        13.26596454795651    9.34971824623830   10.98656429677970
H        13.18780354775066    8.19624369014258   12.32275303793307

