35
CSD_code = BAQHIL | q = 0 | S = 0 | Stoichiometry = C10H18Cl2N2OPdS | MND = 4
Pd       -7.30053747786158    1.81411431053041    4.76769240814570
Cl       -6.07695781800103    3.60902871887909    5.33341653187536
Cl       -9.22709639474478    2.80602291989607    5.24455423564554
S        -8.32672213076888   -0.17007777569625    3.92056809700912
O        -7.99658682828266   -0.55876629576258    0.53950056701754
N        -5.61495193678133    0.88844693931953    4.23812084597928
H        -7.56018349380167    0.16825210506605    0.08107052765546
N        -4.37702298130196    1.35902704055860    4.33243220805451
H        -4.28277052056481    2.28471125677583    4.75828865830989
C        -5.56183632209527   -0.28516838566005    3.61943710784006
C        -4.22284343877872   -0.56802944731802    3.31136499345238
H        -3.85784221393235   -1.44197119763962    2.81479784046015
C        -3.48969887126719    0.51011674208183    3.78196246659869
C        -2.02042915157718    0.81130566440049    3.75472701636380
C        -1.79279002793095    2.07689878362011    2.91673024784741
H        -2.31357266986419    2.92943337679774    3.34534442874963
H        -2.14959233520526    1.92930342686981    1.89975099893718
H        -0.73140505048379    2.30792806099471    2.87759554516351
C        -1.25458526015721   -0.36045931776804    3.13803522818629
H        -1.57770752228854   -0.53657899296250    2.11510892300277
H        -1.41061026954879   -1.26781589372265    3.71615925688970
H        -0.19023036431742   -0.14041725153090    3.12680246218109
C        -1.53568514352355    1.04587573044158    5.19147183391691
H        -2.03436110975521    1.90129929043880    5.63970580597210
H        -0.46531109286750    1.23510711311927    5.19367477682967
H        -1.73089163603258    0.17035535695502    5.80661424376679
C        -6.80580594437998   -1.06734494455062    3.37877046198039
H        -6.79922210273007   -1.99187734057672    3.95992726915855
H        -6.93542633134041   -1.31792127908281    2.32492914146577
C        -8.75611094712451    0.80776505871323    2.42386901050594
H        -9.61427078422984    1.40283870419929    2.74773133582374
H        -7.92077306674140    1.48232844036516    2.17696642634728
C        -9.12377070163807   -0.06714201486605    1.22682928696439
H        -9.67482341117403   -0.94801240188684    1.56570543897099
H        -9.76867464891042    0.50602349899625    0.54824437292865

