34
CSD_code = BAQJAF | q = 0 | S = 0 | Stoichiometry = C10H18Cl2N2PdS | MND = 4
Pd       10.80739060425844    1.09985299185571    1.11387356744155
S        10.58181974549592   -0.87421377993778    2.36064407985528
Cl       13.00858054569779    0.81383125171978    1.28423691787091
Cl       11.09332806951920    2.94735529698862   -0.14390251179118
N         8.79272170427434    1.35381324549925    0.95754390567475
N         8.31542846225051    2.05498179173688   -0.06917640591096
H         9.01478374510552    2.59146836843293   -0.60093788375692
C        11.08711949448453   -0.09185501232389    3.92463181396932
H        10.81562948671089   -0.73948678348619    4.75436691554396
H        10.63594169486671    0.89724594416905    4.02859560736588
H        12.16930519141474    0.00900833832585    3.86000205984552
C         8.80248915445954   -1.18509841402277    2.68319080075227
H         8.46706153191507   -1.77261040142652    1.82803356181831
H         8.76482204104007   -1.80936233309957    3.57673423501461
C         7.92041765808518    0.04865880392795    2.86484961601478
H         6.93519373184830   -0.27912043310456    3.20366023073161
H         8.34320337521465    0.68875588025639    3.64656552203823
C         7.75317858878001    0.85251462769374    1.61569390725997
C         6.57455169491142    1.26132478246360    0.97904593642694
H         5.57646524579731    1.01862109595613    1.27798026179993
C         6.97267240977053    2.04306811268870   -0.09374723244785
C         6.19680224167602    2.78057188501852   -1.14424535600727
C         4.69572864349285    2.58177657366350   -0.92689393916159
H         4.39496872615856    2.96360849626169    0.04557557367975
H         4.43444299526626    1.52806874507484   -0.98608452563371
H         4.13765472847825    3.11596832891709   -1.69154222183315
C         6.59611836745695    2.24179771117868   -2.52420552993750
H         7.65592275540384    2.39484347727957   -2.71041528840453
H         6.03388373846440    2.75642191883782   -3.29924393612840
H         6.38267827244295    1.17742057848589   -2.59391608264248
C         6.53954957961941    4.27350933222185   -1.05119888654762
H         6.29278114019400    4.65942522253742   -0.06466096024005
H         5.96951404794611    4.83040341192807   -1.79053410457493
H         7.59735058749753    4.44493094428528   -1.23301964809177

