49
CSD_code = BAQROA | q = 0 | S = 0 | Stoichiometry = C22H22N4Zn | MND = 4
Zn        2.34868973252811    8.49646256431073    1.54026228662619
C        -0.43444004109437    6.98405307132681    1.36882062970256
C         0.58819701432715    6.42065659839773    0.60106663601722
C         0.15914826772267    5.41193016523290   -0.43605128369424
N         1.84521890193320    6.80806150434178    0.71711760928095
C         2.95916941800477    6.27740453432703    0.08489217636572
C         3.15526731286735    4.92383358581012   -0.17338679511993
C         4.34928762832089    4.46626935505611   -0.70387349256629
C         5.38634896935874    5.34926256294497   -0.93941400407680
C         5.23361275266442    6.69317326314633   -0.64472664408832
C         4.02683097451545    7.18602890012416   -0.15677458978353
N         3.82198577310693    8.48824320142656    0.27233714028702
C         4.32642676375291    9.59669686512773   -0.23821998866315
C         5.07771548112134    9.59924686959263   -1.54702922236843
C         4.11928993683327   10.84555156906021    0.35320919389490
C        -0.38559044106914    8.02102089592804    2.30406867572795
N         0.74842035642685    8.60931805774292    2.63817034223958
C        -1.71496252103286    8.49564525423178    2.83769913872354
C         0.94864310393193    9.57689461090673    3.61053951257052
C         0.29303467146630    9.61455165829200    4.83778386951838
C         0.63855930021860   10.54703789717969    5.80078050228245
C         1.68012318571605   11.42633897711166    5.57139397338682
C         2.37987652530659   11.37691082437911    4.37796949427533
C         2.02019063624868   10.48236969525004    3.37415605152354
C         3.35993824223617   11.19146794452335    1.47405961577167
C         3.22161756607581   12.66856262170117    1.75014577654900
N         2.73007325338145   10.28565912050456    2.19960354300279
H        -1.42391518593923    6.60116267241191    1.16294467122487
H        -0.82410156224835    5.67263357525140   -0.82073625844693
H         0.08971949046059    4.41767367671709    0.00408030427342
H         0.86539454386569    5.37997583927720   -1.26213414470881
H         2.38692822711686    4.21264144537881    0.08352937381272
H         4.47356655686866    3.41314267875093   -0.90827443240756
H         6.32828830323421    4.99197992541402   -1.32853857403994
H         6.07796057961645    7.35481025962592   -0.75185778301319
H         4.85358073506761   10.50863481582351   -2.09983334770194
H         4.80318896521008    8.73966155212397   -2.15371986236303
H         6.15259924005669    9.57501383443689   -1.37120216684960
H         4.56357752447885   11.67894738901944   -0.17232142854959
H        -2.47659218637144    8.40281062272363    2.06701259330814
H        -1.65764005240715    9.53404323117546    3.15531527366061
H        -2.02589793159000    7.88635869279744    3.68580430003520
H        -0.46287293991312    8.87993850053041    5.06373249061952
H         0.10697338987251   10.56562124321714    6.74064251380928
H         1.96911816285123   12.13826658802560    6.33030616610664
H         3.24250253744616   12.01005935627592    4.24731690322637
H         4.06155595826598   13.02594685473200    2.34504686842895
H         2.29920923137785   12.87872405861660    2.28616967350343
H         3.22058364780866   13.22140101969392    0.81361671868538

