56
CSD_code = BAQROB | q = 0 | S = 0 | Stoichiometry = C32H19AgN4 | MND = 4
Ag       -0.59951386376038    0.55779866442712    6.44731010661524
N         3.44530073054889    0.54224498692639    7.65143383840535
N        -1.46790531644837    0.49781133836035    8.28393878463827
N        -2.45899744622995    0.53979651810575    5.52406413431742
N         0.34217961141977    0.59340186701214    4.64729004061978
C         2.43532413551228    0.59352215393467    6.69441255489015
C         1.16508290959145    0.60090039586687    7.32313838448037
C         2.87064197557202    0.52107887833115    8.80997423951502
C         1.42542995331688    0.55825276741665    8.71379216725704
C         0.50061041901950    0.51781003346255    9.76293848053934
C        -0.87567186104725    0.50531926801686    9.52576966335804
C        -1.89310256448268    0.53097675972880   10.52907888999829
C        -3.08949980260955    0.52127377762384    9.88851997651900
C        -2.82394895226376    0.50013972415483    8.48351687452145
C        -3.83107422945920    0.48562952024608    7.52114669535572
C        -3.66593583094954    0.49834494365766    6.14771560689408
C        -4.71244074957213    0.48701420068632    5.15861685189760
C        -4.11026887052925    0.52552908665762    3.94670612686631
C        -2.69046460248729    0.56041282988528    4.18413231374677
C        -1.69600617968011    0.62080267407172    3.22566813255309
C        -0.32010767743652    0.65181781268738    3.44728920940440
C         0.63683941017600    0.74779943217737    2.39167916812358
C         1.87105998311838    0.74104291088449    2.95986099869785
C         1.68713466617297    0.63011604150508    4.37094325322310
C         2.71315568565262    0.59809447851404    5.32556591677810
C         0.99224743332535    0.48519054680638   11.15072040772123
C         1.82013362662470    1.49855231175423   11.62686922883334
C         2.28948179898963    1.46515705525622   12.92709390508046
C         1.94750464843370    0.41650500087704   13.76466730026470
C         1.13033722770383   -0.59916220410767   13.29666000402260
C         0.65214139116039   -0.56502487155041   11.99980406424577
C         4.11540690674268    0.55563155826970    4.88824270050394
C         4.54834783045623   -0.41224847724829    3.98413938319118
C         5.87216214817069   -0.45799605761236    3.58844109532928
C         6.77968358376375    0.46241204315159    4.08582141065648
C         6.35865554435539    1.42139285271006    4.99225910057099
C         5.03801857967898    1.46585165975164    5.39712801961879
H         3.44667850652982    0.46442333947416    9.71665927620557
H        -1.71142560982460    0.56639672341461   11.58555113037612
H        -4.07179788248063    0.53577579401106   10.32044378388627
H        -4.84532354314964    0.46836392502776    7.89458675911888
H        -5.76193675354624    0.45490044479730    5.38096951465679
H        -4.56639442971304    0.53112023801964    2.97519414565088
H        -2.01050430998195    0.65069981959278    2.19181661038299
H         0.38809539806063    0.81996056669665    1.35028086050463
H         2.82080700335478    0.82378076501060    2.46910280230003
H         2.07738220767509    2.32104993921443   10.97549213613225
H         2.92495067810116    2.26045251491320   13.28833373056763
H         2.31792278635222    0.38983345102696   14.77869419754403
H         0.86584813230790   -1.42242585209562   13.94422504567114
H         0.02654222014500   -1.36391776991318   11.62854485972822
H         3.84643642317952   -1.14572772845005    3.61386242717028
H         6.19800215686822   -1.21700057812456    2.89176300227638
H         7.81280329658456    0.42750874684135    3.77226385196988
H         7.06494291931534    2.13726726346724    5.38665857109091
H         4.70732854767532    2.20974591468002    6.10420826551511

