89
CSD_code = BAQSUJ | q = 1 | S = 0 | Stoichiometry = C35H47N6Pd(1+) | MND = 4
Pd        0.61065822579640    1.78621827582470    4.85819975176852
N        -1.00078459145405    2.84260468759849    4.81046964644097
N         0.82547400213481    2.85542428989519    6.64158273966130
N         2.20332911395057    0.44926493265869    4.55880891874968
N        -0.02973641760346    0.86898112828976    3.29581717478611
N        -1.79582159654578    3.73143016226352    0.62253995476279
H        -2.72058756149923    3.54385388502831    0.27100249230199
N        -2.07481002167644    5.37137114020874   -1.88843562133758
H        -2.89104743866026    4.81827161149960   -1.66156255339850
C        -3.44288829763318    1.89666156198134    2.14721232404837
H        -4.05298582885392    2.79665273342279    2.13086372712387
H        -3.89883603767481    1.19250924953649    2.83794687796553
H        -3.43599784670804    1.44371457105450    1.15854740286407
C        -2.02363892802192    2.20515047828163    2.61944226291804
C        -2.02544531343505    2.92844542036932    3.95818742107527
C        -2.92190292324026    3.89771008219275    4.44313663661264
H        -3.84549885921461    4.20163283074156    3.99046511236684
C        -2.40993943391434    4.37237904286189    5.64239909994195
H        -2.85179886178887    5.10868502247778    6.28411385116574
C        -1.19719441232127    3.69616940617094    5.85161171881828
C        -0.19713959055046    3.62329856809841    6.85588254192545
H        -0.32136775466571    4.17932718748866    7.78043390417334
C         1.74958444920350    2.48956803012622    7.69381703090458
H         2.75921252962472    2.53644013413629    7.25952724697702
C         1.42820905664743    1.02847358210454    8.06314844486938
H         1.37378452071141    0.41953294602375    7.14418429427704
H         0.44366705508908    1.00395702350804    8.53904835083195
C         2.47549197649274    0.48295465236428    9.02731102196850
H         2.22821645246180   -0.54446022928123    9.29889942764951
H         3.45411041080009    0.47413901217699    8.54266266014290
C         2.53870337447684    1.35148621929288   10.28157873826494
H         1.58834027230179    1.28575088501230   10.81532402032208
H         3.32010282106298    0.98271545407992   10.94729755741544
C         2.81449181707869    2.80872218353358    9.91942881026555
H         3.79756461743890    2.89046264682106    9.44991536161300
H         2.82789842961788    3.41730068278079   10.82458954673454
C         1.74546317159140    3.33987271333321    8.96494645179932
H         1.94701368912150    4.38539163756251    8.72053306196408
H         0.77420390559716    3.27729598476246    9.45976657642766
C        -1.13340016380724    0.97224901020512    2.55310744929965
C        -1.14796843499013   -0.09545401025310    1.63641327964866
H        -1.89948705472031   -0.29863582105538    0.89881010801543
C        -0.01871878141423   -0.86414269503538    1.87793681876594
H         0.26835925583709   -1.76290326678799    1.36889272991497
C         0.67294614713661   -0.23552394855588    2.92783155525576
C         1.89977944009735   -0.39462594195656    3.61698550777833
H         2.58031163927853   -1.18717481277212    3.31675941308620
C         3.53835702766224    0.42130923827059    5.13716996779520
H         3.51586418690988    1.07512367088309    6.01620131016185
C         4.54034933241305    1.02069681865113    4.13900206775481
H         4.59168262894046    0.38525924500973    3.25180949028414
H         4.18370953345543    2.00774931407067    3.82711845180828
C         5.92039268036285    1.12791228259756    4.77951358482408
H         5.87666890891694    1.81878126309032    5.62467930982545
H         6.62952887239079    1.53244524183286    4.05565222267022
C         6.39352600147409   -0.23964602155200    5.26467045809536
H         6.50955346687325   -0.90780352196719    4.40868961168251
H         7.36750804732618   -0.14359700181480    5.74617790820370
C         5.38936554292806   -0.84060857093402    6.24433062975180
H         5.32309513734049   -0.20530975512674    7.13060338767462
H         5.72859975260261   -1.82576928821341    6.56742136120811
C         4.01439125263251   -0.96286270992286    5.59231144612687
H         3.29405247884752   -1.38455158780790    6.29705508296246
H         4.09289713482256   -1.64125395221063    4.74181175222418
C        -1.29780482006312    3.17649364996816    1.73675150931798
C         0.00968537264772    3.66806727735995    1.92164974736887
H         0.66804497512361    3.39815940285978    2.74338347502542
C         0.28034488233607    4.53113306769656    0.88913326392198
H         1.18618940591875    5.07985779223583    0.72513311374879
C        -0.86114938215192    4.58331191323228    0.05039779942842
C        -1.01439099392659    5.32452910003072   -1.10356378444165
H        -0.17401661944325    5.93705127522165   -1.40261361508065
C        -2.18859177931345    6.15595777581304   -3.10003051345220
H        -1.25755912362163    6.71757126375636   -3.22124048421287
C        -3.36061696167664    7.13492481573714   -2.98618434547304
H        -3.21184439979062    7.78966895601007   -2.12533682855779
H        -4.28692515007669    6.57584774622020   -2.83466213484559
C        -3.47327268719992    7.96269532261636   -4.26429279107140
H        -4.31790718640590    8.64645186600631   -4.17837841855187
H        -2.56971737314257    8.56224791570051   -4.38966383549354
C        -3.65659158014240    7.05550969432748   -5.47679935615780
H        -3.70926919573623    7.65870025794816   -6.38282181226833
H        -4.59729538096705    6.50884769076284   -5.38525553495791
C        -2.50013909524246    6.06663569813781   -5.58337612570657
H        -2.65321392717368    5.40315582124314   -6.43468683644585
H        -1.56804705195569    6.61065149607095   -5.74726998487269
C        -2.38583693906819    5.23492583443616   -4.30809257368477
H        -3.29929503089912    4.65092307771029   -4.17378432725851
H        -1.54554216685640    4.54205828410762   -4.38409449856206

