88
CSD_code = BAQSOD | q = 0 | S = 0 | Stoichiometry = C35H46N6Pd | MND = 4
C        -0.42695288830773    6.92891970279766    8.46511399432327
H        -0.16335071044821    7.75550240270743    9.11874325108823
H        -0.45891268900605    6.01794616181032    9.05617811049121
H        -1.41217712677164    7.11177945771653    8.04283540964880
C         0.60236616826995    6.79371669586818    7.34755965338719
C         0.75143607894244    8.08698927479221    6.55674992814790
C         0.51606893018200    9.42102716447794    6.93421458767906
H         0.04807583843279    9.75274352788109    7.84039276099218
C         0.99121588786857   10.23468097346320    5.91520413465753
H         0.95892264072659   11.30677366820583    5.87843452829588
C         1.51632457776343    9.37824404407357    4.93290627605651
C         2.08873058791155    9.48960698785823    3.64867504543030
H         2.20090146230535   10.47251240396220    3.19767337154509
C         2.82727860077017    8.43920696368352    1.62713566894528
H         3.49753517177819    7.58560921608147    1.46118237617775
C         1.55761106887400    8.22681956699338    0.78510847154887
H         0.91220624521411    9.10231674595847    0.89564056430177
H         1.00773102012695    7.35884364742996    1.17558310046630
C         1.92607684912198    8.03787218087036   -0.68235344152951
H         2.53189908420580    7.13507069481611   -0.79662150009196
H         1.02136641128463    7.90928254304953   -1.28001588832105
C         2.71780370033205    9.24123374431417   -1.19026969182324
H         2.07987278620982   10.12766938256268   -1.16564831339744
H         3.01765257344530    9.07608214927091   -2.22703371227889
C         3.95299620674723    9.48771774692375   -0.32619521920366
H         4.48717873177852   10.36763387607117   -0.68995371250456
H         4.63051673005455    8.63361353659188   -0.40120151457765
C         3.55107027185580    9.69500879358580    1.13249034718806
H         4.43083214261571    9.88325642019002    1.75107176221049
H         2.89670532632675   10.56649553175287    1.18973481059085
C         0.30457376618922    5.60405065526380    6.45331339612874
C        -0.45199704215687    4.44516584322816    6.69677428902298
H        -1.04594894456229    4.24310086702116    7.56654487097827
C        -0.29673289506564    3.60832249919816    5.60034256681785
H        -0.74735573114787    2.64530905632513    5.45414315384628
C         0.56018630503086    4.27480287996680    4.70997720268517
C         1.13994955762865    4.02551771046618    3.44800100352930
H         0.96316129901176    3.06798493311332    2.96492713047087
C         2.61834103823020    4.71258859060715    1.68068180529038
H         2.38351119498420    5.54433949637868    1.00219740996067
C         4.11068956952775    4.78496340223991    2.03002566267962
H         4.28233382491656    5.70077349731028    2.61082515882189
H         4.35957086409952    3.93405779261054    2.66983477386502
C         4.96179652647162    4.74706613464634    0.76654638319768
H         4.74592524197887    5.62361384334201    0.14934847713758
H         6.02138273203196    4.77288449506176    1.02836231317435
C         4.66226005156582    3.48063580987483   -0.03156902389779
H         4.96278656135836    2.60833739882759    0.55314763841395
H         5.24191507755055    3.47790267588317   -0.95681755228995
C         3.17350016529367    3.38261558293288   -0.35274163929134
H         2.97379484424575    2.45881008193948   -0.89932516609656
H         2.88241604807044    4.21741088861468   -0.99532292170336
C         2.33902575474015    3.40982479548787    0.92680997960465
H         2.61063682062741    2.55132771196842    1.54520889015159
H         1.27810962534159    3.33793387986959    0.67522121498573
C         1.99577608762875    6.56062967786498    7.89606424754692
C         2.51564383706811    6.48774907932807    9.17612944208735
H         1.95872661418064    6.49665971408511   10.09185021600827
C         3.91113039225248    6.41541474569904    9.06237373670676
H         4.61263258590305    6.36091795202717    9.87201308291478
C         4.21232831201414    6.44383134184195    7.70885514650900
C         5.40514316933977    6.61598127617723    6.94418679980862
H         6.35178861900381    6.71568854137780    7.49195566224712
C         6.47348274841683    7.09999730832193    4.91437391664667
H         7.26754410390344    7.51966782079263    5.56000840207563
C         6.02878959461037    8.15833379513050    3.90068456655630
H         5.67032310946996    9.03696006009160    4.44203368979413
H         5.18068865436178    7.74996203639471    3.34458974950016
C         7.16415304525650    8.54129150876299    2.95954699540534
H         6.81191054765963    9.27311695969374    2.22869242597991
H         7.96756323232664    9.00785204842083    3.53505875511864
C         7.70767185709440    7.31034576568615    2.24249580468008
H         6.92006493380054    6.87949879144717    1.62117717787594
H         8.53500857322736    7.59440343520910    1.58822383931516
C         8.18076597058637    6.27390746102309    3.25722789718277
H         9.00285063897607    6.69350941212954    3.84234377774750
H         8.55872413704929    5.38877256117778    2.74011930853741
C         7.04501959043606    5.87403528185840    4.19306455997185
H         6.24503016080385    5.39584449409008    3.62954702301224
H         7.40338002692526    5.15876218319789    4.93733503899353
N         1.35628993177042    8.09598180681955    5.36918424782678
N         2.45163000602820    8.40462315869371    3.02615998369466
N         0.90850648054783    5.46779845577850    5.27282574162829
N         1.88128302827849    4.94549199634775    2.90532502689908
N         3.03064642916153    6.50331254946151    7.03668977962043
H         3.00448244483146    6.55508000699873    6.00767542566072
N         5.31458044246772    6.74136348863145    5.68080952574080
Pd        1.84792675900092    6.70719955677023    4.11568682986153

