45
CSD_code = BAQSER | q = 0 | S = 0 | Stoichiometry = C18H12F10N2O2Pd | MND = 4
Pd        4.38119660592136    1.71942228159986    3.76084911895905
F         3.52115383155220    2.62388010609989    6.27483506329462
F         4.44023988125100    4.52160062345688    8.09893793708961
F         6.73481263203088    5.88982297764272    7.53933568524378
F         8.07941206886433    5.41218927242553    5.21683672288280
F         7.11943302857479    3.53227395791716    3.44850176335655
F         3.08857408683882    4.75392708636191    3.71455760296667
F         3.25226373212312    6.59966924036434    1.67785351678135
F         4.55145194484373    5.95119695390067   -0.62913705294435
F         5.69571706341971    3.48896083457706   -0.90981125764970
F         5.49230780686961    1.65946430084292    1.18284156469015
N         2.97487261359631    1.05908503859129    2.72646515720279
N         5.24543246817635    0.54946923460861    4.93343144267164
O         0.85731184056099    0.22279548398681    2.64718122688964
O         6.58364212546548   -1.27138844482909    5.22706234466591
C         5.33776113942491    3.03327046682448    4.88301197198062
C         4.66450283535466    3.32469977557451    6.05828393066268
C         5.10637114567315    4.27314751839382    6.96880250369389
C         6.27692091834092    4.97490938811820    6.68077119729880
C         6.96583379200730    4.72785021343723    5.49610196806792
C         6.47882362047257    3.76718499010692    4.61597625501787
C         4.25174697073681    3.17665317617176    2.43381776179769
C         3.70970519136175    4.44307159212159    2.55445940756371
C         3.79668196910952    5.38720912798915    1.53673533663704
C         4.46367779325322    5.05772218743470    0.35957736172683
C         5.04559120460598    3.79843154001799    0.21452936080789
C         4.92921046253823    2.89324376210551    1.25902913390635
C         1.75484137484661    1.15285615580303    3.01111181252804
C         1.10465968735524    2.32543390844324    3.70644827678748
H         0.12170951947959    2.02506451634950    4.05798271221366
H         0.99009023944523    3.15053025257310    3.00488826570666
H         1.72257940250133    2.65396943023090    4.54617491102195
C         1.36481135202749   -0.91994402993804    1.98077262465985
H         0.50251334365345   -1.53645416746613    1.73874000869866
H         2.05346242047877   -1.46835538116248    2.62901040953407
H         1.89569588872734   -0.62909109178284    1.07131802502477
C         6.31091988825157   -0.07078264942738    4.69134297801274
C         7.45827441110848    0.44870361696606    3.85743664014839
H         8.03961335584121    1.16400645517507    4.43738949444993
H         7.07721698584108    0.94190150146219    2.95939553215299
H         8.10003587008559   -0.38448007525042    3.58496643637013
C         5.57460572911282   -1.84864597378380    6.03783037763718
H         5.98320077903564   -2.78667559641839    6.40565565062877
H         4.66950698996693   -2.03231067291845    5.45275482409327
H         5.32621398916655   -1.18588888526934    6.87014399519406

