78
CSD_code = BAQSUI | q = 0 | S = 0 | Stoichiometry = C35H38ClN3Pd | MND = 4
Pd        5.58223486553190    3.18150384887493    1.51210067636683
Cl        7.13176992872174    4.97037458801270    1.27515671838654
N         6.34840038597091    2.02677830358692   -0.13852461451972
C         4.08595574417649    1.86533248339038    1.53494387766011
N         3.67081668368076    4.44912766933166    3.42216702221956
C         3.56834664441004    1.04855436971782    2.52883116606962
H         4.02042313242858    1.03238335683933    3.51375653498420
N         5.67428273342325    4.33591086576577    4.20601780848125
C         2.47131243593908    0.23189697603257    2.29130038744763
H         2.09097017516745   -0.40160911241183    3.08131086538414
C         1.86510670423225    0.22695607346278    1.04915582034676
H         1.00557494845441   -0.40185404739110    0.86416964709955
C         2.37500912829499    1.01706600548370    0.03464473161016
H         1.92724505512478    0.98430958044402   -0.94937955875782
C         3.48443942272152    1.82385109876541    0.26575450765573
C         4.06181481623556    2.64251317551765   -0.82538502994574
C         3.21566571409364    3.30139535668328   -1.70778912133613
H         2.15036180011908    3.17274182847525   -1.59098821048939
C         3.70651002383671    4.13585728841557   -2.69749715110324
H         3.02665055282776    4.64683102221309   -3.36307288706427
C         5.07010938209626    4.31657099665511   -2.81482219544454
H         5.47247092670797    4.97499051303473   -3.57018297726598
C         5.94081085215795    3.63570566373492   -1.97763460421671
H         6.99982646386717    3.78445835238056   -2.11263498938748
C         5.46487024442582    2.79549544238708   -0.97404709354766
C         7.77787216931746    2.29097143176733   -0.30216812257056
H         8.31876375594413    1.74450669846161    0.47520279192215
H         7.99018520403738    3.35295979965033   -0.17541580342396
H         8.14203751115752    1.95312650207064   -1.28230317246727
C         6.15321585625484    0.58314950566039   -0.31005723372622
H         5.10492354275963    0.30479705739203   -0.23688102062966
H         6.70703081134185    0.04791565666391    0.46359354147837
H         6.52923098753146    0.26758688192704   -1.29295686601674
C         1.46310220617029    3.53336855000236    2.96230153017265
C         0.39307810978748    3.39120886781377    2.09382695979561
H        -0.44010049700770    2.76939471748252    2.38778550915691
C         0.36811975411891    4.02232192024848    0.85874469776749
C         1.43991758385715    4.82437471136369    0.50308357546563
H         1.42593999773826    5.34538432101603   -0.44307799631338
C         2.54507301703941    4.97629143713840    1.32867946867456
C         2.54875967647664    4.31531875685251    2.56070575097636
C         1.41973723082680    2.85355773001122    4.29855844080414
H         0.93604135182085    3.49687347093168    5.03488472386612
H         2.41601158369046    2.61060731363905    4.65720516783784
H         0.84273371739219    1.93531020093234    4.22750886309826
C        -0.80387532968561    3.83958232849166   -0.05666044036467
H        -1.69496590059686    4.29569938396048    0.37255229369743
H        -1.00903353126848    2.78039143679574   -0.19941570211898
H        -0.61770706942989    4.29506278002383   -1.02544374384717
C         3.68517661671644    5.84371309012152    0.89634734853340
H         3.38937755608604    6.47316650360711    0.06099464185342
H         4.53817156108624    5.22709933966300    0.56700336834342
H         4.03205468688393    6.47842988487943    1.71199388409494
C         4.92245636366058    4.04723199625108    3.12758365670887
C         3.63533876929995    4.97945651776081    4.68863404207732
H         2.73664545832220    5.36866888323706    5.11982104397315
C         4.89292895064043    4.90998715510776    5.17854932157934
H         5.28675855430382    5.19395170813905    6.13289577038161
C         7.09099578055285    4.21271533223840    4.30290118760859
C         7.69866702612513    2.95725451272718    4.29527281160440
C         9.08003394657845    2.88628530899697    4.42051640852661
H         9.55503156264717    1.91518412954332    4.40856629457846
C         9.85755730262398    4.02402905029148    4.54920572926393
C         9.22825984969799    5.26149243462927    4.53510520780651
H         9.82760374362581    6.15788710558753    4.60270322698326
C         7.85532768625495    5.38032305726168    4.40628098600112
C         6.90068962321695    1.69859029503864    4.12837568665296
H         6.00002506475050    1.72084868959316    4.74216959215063
H         7.49422004569529    0.83021776457811    4.40434598246032
H         6.59637841704811    1.59638698825474    3.06726660288079
C        11.34817294353505    3.93846679879330    4.67257708909707
H        11.69683946433025    4.53048709301284    5.51713144955211
H        11.81852939566661    4.33318910510634    3.77263182501543
H        11.67139546099641    2.90940184474619    4.80751535774470
C         7.22605034058107    6.73434056967064    4.28578131658424
H         6.71627807328040    6.79621748638229    3.32429205151756
H         7.98920117062639    7.50693186710153    4.31776049073988
H         6.50116408116451    6.92984232854252    5.07397308174510

