45
CSD_code = BAQVEW | q = 0 | S = 0 | Stoichiometry = C20H16N3O5V | MND = 7
V         4.53471713573952    0.71489976701709    4.23670660184644
N         5.12627112426762    2.01299759153116    5.67242774377204
C         5.79898605330870    1.62594699255452    6.72984165571140
H         5.97669231317126    0.55910163450013    6.80353476691656
C         6.26897497503325    2.52797525363406    7.69202532752293
H         6.81703396359741    2.16014075190035    8.54526319647429
C         6.03099281290948    3.87148503716079    7.52899788653701
H         6.38790520861659    4.59753961660059    8.24539536832124
C         5.30506046094806    4.30270196081269    6.40611717789306
C         4.85731702319485    3.31373923025482    5.50008148672466
C         4.08837136374779    3.71220523578034    4.35659928100438
C         3.81555357764345    5.08070196425874    4.13212358287280
C         3.06429481406947    5.40708199171574    2.99047751533624
H         2.83673464538789    6.44255520622630    2.78085222307781
C         2.62527385698547    4.40149761109914    2.16453095352909
H         2.04290638516852    4.61837335950289    1.28268660680226
C         2.93798687474092    3.07383623613129    2.48706669068953
H         2.59737943120685    2.24518270429537    1.87736428177629
N         3.64502795221269    2.75234635089504    3.53984106525368
C         5.00938914138419    5.67347043301213    6.14924514736171
H         5.36804815040191    6.40936963190252    6.85427766774445
C         4.30065947886654    6.04833834196457    5.05698948496812
H         4.08259532116340    7.08933787839978    4.86741215492211
O         6.07693012222238    1.76927888224336    3.37262654919277
C         6.22155434663503    1.48089869508463    2.16498620469222
N         5.37593162909054    0.65418533044651    1.60149159428711
H         5.42430061435979    0.29232042554033    0.65279336429098
O         4.34973671492517    0.19065204874907    2.33943021406514
C         7.24761003519538    2.20886481235687    1.31790656817748
H         7.25621088581032    1.82303813382538    0.29916056723008
H         8.23327834061989    2.08386738911003    1.76797872161726
C         6.05123355489253    4.20879719236153    0.35396749548490
H         5.79775469512215    3.61607097478432   -0.51357948601592
C         5.60516845635220    5.51577726688630    0.44880525552487
H         5.00750860729961    5.93751221276699   -0.34589408729007
C         5.92085582581128    6.27893009457903    1.55937272109976
H         5.57462936571564    7.29926863899506    1.63189372162750
C         6.68486201113599    5.73035134816136    2.57573945475949
H         6.93123220268514    6.32000749355254    3.44679385403018
C         7.13424228555377    4.42617203504307    2.47936983472429
H         7.71943634568804    3.99305363695108    3.27702576865601
C         6.82812075202092    3.65669512528577    1.36313566883520
O         3.18196331573642    0.70968398416426    5.36691513348499
O         5.50669294130451   -0.38409600177118    4.69988140888278
O         2.92157488806249    0.06084549974233    4.25374160558719

