99
CSD_code = BAQZEB | q = 0 | S = 0 | Stoichiometry = C50H42NiP2S4 | MND = 4
Ni        3.51644811826185   -0.07692962969575    6.81812289236509
S         2.73888434965521   -1.35002607848977    5.27324868842036
S         5.46889263067764    1.98712652638471    0.39857539856177
P         3.91236400422525    1.32471778909718    8.42411459059995
S         4.32035216263606    1.25069569896463    5.33265624934969
P         3.09607762822617   -1.53595967390927    8.36656847497919
S         1.65874931648175   -1.91416499651416    0.30691049044281
C         4.70725499880223    4.61333346534331    0.91597134021376
C         3.89376943440593    0.55131280612867    3.77258689491082
C         3.19371306709606   -0.59671716333207    3.74674101550085
C         4.38879949418657    1.29705596255763    2.62244298409542
C         4.21519259771277    2.70012423998693    2.51075015127916
H         3.70304217175106    3.26659212210587    3.26746865343863
C         2.41802265479881   -4.55658386044500    0.74079499163752
C         5.07288453566198    2.70588713970616    8.56809857113531
C         2.89393986403423   -2.69939372733584    2.40449125407000
H         3.40087078642166   -3.29130195634699    3.14508801420875
C         2.71576226090511   -1.30168298778641    2.56415281562305
C         2.96952359131276   -0.68906497874051   10.01122630045830
H         1.96894842723459   -0.25115290691624   10.08834408183884
H         3.10937463817649   -1.40636917444212   10.82500378520067
C         2.39244018165539   -3.19763417469252    1.23800430608540
C         2.03626867145684   -0.73406200196582    1.51922956351129
C         5.73722240583976   -1.94069290454521    7.69525959171809
H         5.53234489898975   -1.15883493619117    6.94766896600547
C         4.72832826775666    3.23834187017668    1.36727087894273
C         7.04036710509933    3.77221199143941    9.43477312120932
H         7.88722321376709    3.76729786525473   10.10572754537645
C         1.93400868043716   -2.92131199990570    8.44697790148842
C        -0.04423969672796   -4.01605237596963    9.25221808950433
H        -0.89906371502088   -4.03391382899021    9.91267063664112
C         5.07720607475682    0.76548066368937    1.56435073935685
C         6.16908158928914    2.69720259909296    9.42281419297512
H         6.34575583998363    1.85626011671438   10.07786635961766
C         1.27978475471497    1.75427963006611    7.73499844415155
H         1.49321742477062    0.99729254167175    6.96463655401199
C         2.05597225936482    3.12379852824099    9.55932203619814
H         2.85422629943463    3.44193370376911   10.21664129020243
C         2.13936793137016   -3.96797187871414    7.54969714124500
H         2.98664897501867   -3.92679728048879    6.87883598421940
C        -0.21592604385627    3.28932446459643    8.79942436705545
H        -1.19516608332448    3.73762172674610    8.88114081932079
C         4.70964616143623   -2.36360358125545    8.53266042901820
C         7.22232077001742   -3.50777648059135    8.72716974579791
H         8.20144374004528   -3.95669905748063    8.80675212735762
C         4.01721463194667    0.41798849685008   10.03802413211907
H         5.01689876681056   -0.02236882443167   10.11248891894954
H         3.86619907492622    1.10500348972463   10.87552977463839
C         6.99340410970152   -2.50978686810204    7.79360817266693
H         7.79025227573120   -2.18026123632891    7.14352307279476
C         5.51993548956507   -0.63419302601070    1.33680507929935
H         5.50563270071298   -1.18370813363050    2.27545089931636
H         6.52869730735036   -0.64991980241830    0.92620704649745
H         4.86295818021734   -1.14507117309602    0.63109094818464
C         2.29715359374139    2.14712069719394    8.59911514609617
C         2.47671661240307   -7.17648646475532   -0.22936271122528
H         2.50097639550090   -8.18931557386811   -0.60361744852219
C         0.79866243061195    3.69090305525055    9.65567988067097
H         0.60751842913738    4.45136284635631   10.39886635317190
C         6.19767059527858   -3.93924624043887    9.55640289841290
H         6.38104995925698   -4.72319111469056   10.27677454752231
C         2.81586704630084   -5.61463744468709    1.56255216267018
H         3.09499225338645   -5.42112962480823    2.58667666733119
C         0.82652796064688   -2.94113581636813    9.28704120091435
H         0.64138923695703   -2.12303065012490    9.96800773587458
C         0.02329397658174    2.32229899557258    7.83624663334061
H        -0.76596016637698    2.01579617425818    7.16590591758356
C         2.04545222657840   -4.84288733305847   -0.57391967855419
H         1.73382007137743   -4.03418649210993   -1.21972799880771
C         2.07473671773843   -6.13737439213941   -1.05250069278287
H         1.78381925965217   -6.33773784252976   -2.07350417370845
C         5.06900684815489    6.25321378423978   -0.81987500437937
H         5.37265182012116    6.48774946922750   -1.82984153614927
C         0.17320800023340   -5.06291332710938    8.37202242016991
H        -0.51231525085371   -5.89697731750536    8.34717268113098
C         4.65256166824093    7.26357857873168    0.03137892751198
H         4.62931145679603    8.28799267992730   -0.30996965195979
C         4.94050341860356   -3.37141175677865    9.46271458209038
H         4.13466747524253   -3.71248080061087   10.09891790884768
C         6.83436766680633    4.84780409898700    8.58708056040351
H         7.52068663349420    5.68149896749943    8.59819823987368
C         4.87932448545755    3.78172564642199    7.70338050604631
H         4.03949886687628    3.76404102482254    7.02199571047676
C         1.59359573879848    0.67252131330818    1.33925315091044
H         1.59290459633114    1.18498712184200    2.29883670670655
H         0.59098473687317    0.70263456062648    0.91468724182444
H         2.25998592478942    1.21177161532896    0.66412933192833
C         5.09644746338168    4.94387575823072   -0.38351121248174
H         5.41930410907362    4.15782217295621   -1.05139206454826
C         4.26876915888907    6.95064997192949    1.32529589580483
H         3.94727009873541    7.73438572611299    1.99646751925788
C         1.26376584169761   -5.03524698556760    7.51655092528983
H         1.42544639946049   -5.84444223142713    6.82012581627323
C         4.29558659938325    5.64280751685394    1.76670336050571
H         4.00334771738899    5.41504758018411    2.78006764846005
C         2.84476307154009   -6.90739132592255    1.07891139318775
H         3.15488319800846   -7.71377577730769    1.72825776133989
C         5.75511291374095    4.84914287362586    7.71707316822314
H         5.60183376831329    5.68158954217633    7.04653505954828

