69
CSD_code = BARBUT | q = 1 | S = 0 | Stoichiometry = C36H30AuP2(1+) | MND = 2
Au        3.83888505839761    3.38256145349224   -3.12435405376380
P         6.12866350009831    3.45071036169821   -3.19422923836575
P         1.54699519170754    3.33319147762720   -3.09567827289197
C         6.84950196897436    2.30787248318211   -4.40002360946622
C         6.18660616463839    2.17143408713369   -5.61753494175598
H         5.27308155079879    2.72861259668741   -5.79080063417388
C         6.69689049989443    1.33402229181472   -6.59082826932189
H         6.18577789170868    1.23052564851626   -7.53590450597555
C         7.86334072938221    0.62457089365521   -6.34832085504666
H         8.25979201695205   -0.03278809351341   -7.10664130730871
C         8.51989593601857    0.75397937698163   -5.13493011937877
H         9.42676859378746    0.19889813173824   -4.94914730028974
C         8.01865104957756    1.59440656204400   -4.15654609681377
H         8.52842495611175    1.69569979694269   -3.20832151959892
C         6.93061869739437    3.03153569081344   -1.62654074450658
C         6.54389619704597    1.83176078752731   -1.03030040479655
H         5.80764103517793    1.20719423968868   -1.52269573007159
C         7.10724007865802    1.44680730979984    0.17026511433761
H         6.81595706221962    0.51416332057674    0.62899687543971
C         8.04489322347868    2.26322299194805    0.78600149161659
H         8.48320227804211    1.96345752449347    1.72536064784675
C         8.41762898902968    3.46249694961055    0.20171806247288
H         9.14421772577425    4.09697494007707    0.68595516264207
C         7.86267087199443    3.85410486287717   -1.00474802823599
H         8.15208740136175    4.79012476681441   -1.46150936850885
C         6.79028784507090    5.07311995568578   -3.64926254519959
C         7.99777413446751    5.21188628251957   -4.32743127142409
H         8.56051456484865    4.33437074288288   -4.61446942923062
C         8.46732650760859    6.47699060870687   -4.63090594476134
H         9.40350330557904    6.58834656908254   -5.15633747620997
C         7.74042444512955    7.59839843212574   -4.26248078620574
H         8.11219433301277    8.58256320205990   -4.50240973314775
C         6.53597048021895    7.46072545095822   -3.59018181865309
H         5.97022927453561    8.33504091967481   -3.30616386321239
C         6.05715347391460    6.19997475781296   -3.28658542758812
H         5.11527450349835    6.07749274349409   -2.76413640515406
C         0.84806321720411    1.69070664070532   -2.79090735768418
C        -0.24491758561024    1.47984331861560   -1.95688537429427
H        -0.70612304719763    2.31339746361361   -1.44549118750826
C        -0.73430815630473    0.19659827498374   -1.78726185212506
H        -1.58269981594480    0.02953298674874   -1.14121960643278
C        -0.14065521797699   -0.86975315085033   -2.44327275848979
H        -0.52792749194192   -1.86764700017066   -2.30699052508739
C         0.95164334548256   -0.66035332005474   -3.27169083223980
H         1.41410210566725   -1.49291189271157   -3.77970448005186
C         1.45035162362858    0.61667529514128   -3.44257005899897
H         2.30653073228389    0.79548197923595   -4.08269146863112
C         0.79090949505705    3.86922686428986   -4.65085011465870
C         1.45747982611481    4.83847446821442   -5.39610109934185
H         2.40594522749791    5.22488377268710   -5.04103140168234
C         0.90607476832771    5.30047287378812   -6.57635972571451
H         1.42012384438277    6.05438047680645   -7.15301870602447
C        -0.30482587309357    4.79063466329555   -7.01873325194941
H        -0.73342442984002    5.14908359000418   -7.94186438489001
C        -0.96510471101384    3.81959228485510   -6.28217999264901
H        -1.90623296793970    3.42311477642169   -6.63149920988267
C        -0.42260364034448    3.35471352799941   -5.09771036297243
H        -0.93347982093878    2.59607737034334   -4.52092878877156
C         0.81074129830225    4.38715917878965   -1.82114129039560
C         1.34792952938386    4.28423975266869   -0.53880210746802
H         2.16753156561377    3.59798855308972   -0.35958397198896
C         0.82808810855653    5.04696438301052    0.48862191847415
H         1.23735291667651    4.96269362481168    1.48384913770504
C        -0.21778683021559    5.92286891796449    0.23696890906585
H        -0.62271744416360    6.52001103475275    1.03933758563673
C        -0.74156567013568    6.03668792945205   -1.04048208639793
H        -1.55229166895395    6.72263731450124   -1.23330370408519
C        -0.23095386896174    5.27200177708240   -2.07534421965799
H        -0.63803089956441    5.35987215241461   -3.07293528410575

