97
CSD_code = BARHAE | q = 0 | S = 0 | Stoichiometry = C44H44N6PdS2 | MND = 4
Pd       -0.00027668077918    0.00002032421544   -0.00024764559672
S         1.80758795579452    0.45657445681484    1.47787694852116
N        -0.10448393866391   -0.28161357244881    3.23082295336254
N         1.90008384190303   -1.29023828226190    3.46591564506876
N        -1.24751316685844    0.68087543326220    1.43451912066338
C         1.10625423453710   -0.46515570141134    2.76304531751592
C        -1.06457692042482    0.47228513912554    2.70989679274191
C        -1.94512870128705    1.07376615475109    3.74351844478174
C        -2.43386781090406    0.27514036566876    4.77084299332051
H        -2.18468068343489   -0.77502894603802    4.78212426231822
C        -3.23569746228006    0.82328243113612    5.75489280668996
H        -3.62148185818411    0.19561663851584    6.54501088656635
C        -3.54056037289711    2.17389243899767    5.73019416163368
H        -4.16650601487719    2.60199935906467    6.49926519227408
C        -3.03336619874080    2.97749074616200    4.72253845264445
H        -3.25701166588711    4.03399063558510    4.70841479184833
C        -2.23861747785858    2.43314820674936    3.73100357457536
H        -1.83388797800979    3.06689291432619    2.95531533883872
C        -2.34302926036042    1.41390074234103    0.97014136867999
C        -3.63070920264865    1.04951326095677    1.30074919022300
H        -3.79130542093605    0.16891763735372    1.90556575690150
C        -4.72403943796540    1.79656191851929    0.85364479353937
H        -5.71991278515682    1.48075038869116    1.12706104899555
C        -4.53606282552310    2.91568565001881    0.09156402323546
H        -5.37795099364308    3.50556705615064   -0.24050696155711
C        -3.23642836557799    3.31833421561675   -0.28224745369480
C        -2.11536009888168    2.55377315509783    0.13717776840950
C        -0.82156825466024    2.96128182698166   -0.26702426409925
H         0.06686675472268    2.39417849245616    0.05032473081805
C        -0.65191924640840    4.08771957571013   -1.02582753924581
H         0.34032307284979    4.39848201321744   -1.31868995129810
C        -1.75828517473827    4.85342939880264   -1.42285646450296
H        -1.60286877110593    5.74698992583343   -2.01097438935675
C        -3.02043952098865    4.47104911110015   -1.06631338105337
H        -3.87957345199693    5.05002625404082   -1.37564870099616
C         1.37772308899149   -1.90824432760725    4.66812719848448
H         0.73432256585135   -1.17877009352534    5.16860810153460
H         2.22046606352465   -2.15091735188702    5.31824205250561
C         0.57085086065581   -3.16478666291160    4.35965946767122
H        -0.25617060103061   -2.91179694592932    3.70220839038623
H         1.19427485640115   -3.90579503997191    3.86589534487945
H         0.17619982199904   -3.58927064157076    5.27917624927563
C         3.29490300513814   -1.48471896291352    3.15121395844436
H         3.42960729352847   -1.35344712435701    2.07564014280390
H         3.56052371588989   -2.51263262977837    3.41255083038646
C         4.19290521626697   -0.49417943977461    3.88909806537810
H         5.23254413480862   -0.67864604778599    3.63332493367168
H         3.93566650253919    0.51991472321137    3.59482054646508
H         4.07406421229932   -0.58628204533071    4.96648535177557
S        -1.80779097450345   -0.45674811622808   -1.47815335441337
C        -1.10623690847606    0.46519958574534   -2.76302250847487
N         0.10451839766339    0.28166124022458   -3.23078534935913
C         1.06462563853988   -0.47222831476185   -2.70985288562589
N         1.24759427438047   -0.68073145445572   -1.43447612613350
C         2.34306161706823   -1.41384232625443   -0.97009969444652
C         3.63074436492865   -1.04951791961442   -1.30075333816502
H         3.79135492720892   -0.16894924595025   -1.90560541974005
C         4.72405646203455   -1.79658314157823   -0.85364308417628
H         5.71992623546720   -1.48084945246441   -1.12715391845251
C         4.53605284105129   -2.91571150095662   -0.09158047993422
H         5.37791528869826   -3.50566806125679    0.24038889870704
C         3.23640864648521   -3.31835694039761    0.28219835257251
C         2.11535635462728   -2.55373480371209   -0.13716008322546
C         0.82156938213238   -2.96119383384234    0.26713403729628
H        -0.06687701095003   -2.39414210910490   -0.05029030890855
C         0.65191201287182   -4.08761992915388    1.02594259987429
H        -0.34033330472976   -4.39839332128941    1.31875813406628
C         1.75825036330078   -4.85343682225722    1.42281126810944
H         1.60282514567715   -5.74696721536717    2.01099205349067
C         3.02040328118246   -4.47110830103167    1.06620914847526
H         3.87953882016756   -5.05007878721940    1.37559023973894
C         1.94515325349690   -1.07377317255944   -3.74346095607757
C         2.43392426631510   -0.27515209360809   -4.77077629199329
H         2.18474262421207    0.77501699246669   -4.78206019051194
C         3.23577247735927   -0.82329660375591   -5.75480921530337
H         3.62161987108326   -0.19562402022746   -6.54488935370407
C         3.54060986201128   -2.17390841940887   -5.73011296100681
H         4.16661932745731   -2.60200537153380   -6.49913746300203
C         3.03336344635228   -2.97750541953319   -4.72248222540412
H         3.25697570222310   -4.03400975209084   -4.70837646068590
C         2.23861302329343   -2.43315641712008   -3.73095028191947
H         1.83379670334374   -3.06691218538758   -2.95531980330460
N        -1.90006896216971    1.29026872230462   -3.46590084271037
C        -1.37771292938817    1.90829668816419   -4.66810367265615
H        -0.73427318811860    1.17886269782092   -5.16858586685902
H        -2.22044921736421    2.15094320726980   -5.31823329652740
C        -0.57090400756294    3.16486855144227   -4.35961744650221
H         0.25610563864291    2.91191128663753   -3.70214482036226
H        -1.19437596444750    3.90583808479894   -3.86586237033869
H        -0.17624400798290    3.58937890720407   -5.27911628985514
C        -3.29491065269620    1.48465883987239   -3.15124937137184
H        -3.42963224231249    1.35334711233168   -2.07568172699792
H        -3.56057111787694    2.51257013045580   -3.41255816853788
C        -4.19284858786003    0.49410047044194   -3.88919512437505
H        -5.23250320601192    0.67851093967467   -3.63344431228373
H        -3.93557967118030   -0.51999447068443   -3.59493907960770
H        -4.07398515063797    0.58623929097562   -4.96658083580558

