73
CSD_code = BARLAJ | q = 1 | S = 0 | Stoichiometry = C29H37ClMnN4O(1+) | MND = 6
Mn        2.08339609536078   11.23359672711863    3.20696975347588
Cl        1.68845894044247   13.24655747785746    3.83171276450241
O         0.54036856966964   10.46319020014354    3.65820782455086
C        -0.84974076707907    9.10683362463125    5.03660134074570
C        -1.09647742313128    7.83096766931451    5.49517118227132
H        -1.95010909436937    7.67694091627147    6.12874816520262
C         0.29165015194327    9.32032782252626    4.21132253752767
C        -1.71736469436482   10.29884056179698    5.41929174881377
C         2.25925284008043    8.36709493480718    3.04526957561208
H         2.74570804695700    7.45150129750393    2.70580927753972
C        -0.62286700772853    5.31876335189518    5.67742450626188
C        -0.30171096856608    6.71816740396914    5.17786368792283
C         0.80283056909665    6.92794055265806    4.38175253274086
H         1.44591984789442    6.10667318911729    4.10466513185612
C         1.14170591122836    8.20468295335952    3.91226716018232
C        -0.85052436146527   11.34321759406212    6.13846175732823
H        -0.40713169205103   10.91903495592181    7.03787521540777
H        -1.46223479449225   12.19394462541051    6.42753565523727
H        -0.05405204132121   11.70989548270506    5.49172895445272
C        -1.87182499966903    5.27425924832192    6.56138145940422
H        -2.04736155914415    4.24994704369303    6.88107880621022
H        -2.75316938228124    5.60639002861137    6.01792591773668
H        -1.74634675119148    5.88300372514923    7.45380443220600
C         4.72482585991565   10.63248723363014    2.02675029235653
H         5.31213431004796   10.26380215499335    2.87223146283837
H         5.40995748055531   10.87609683757599    1.20689780781007
C        -2.86480020106212    9.90925937944289    6.35551016785384
H        -3.54031091510759    9.20314649130371    5.87889843066790
H        -3.43687547059054   10.79940374222027    6.60530209050311
H        -2.49222038406969    9.48359622353390    7.28417120474124
C        -0.86044328685506    4.40604249334635    4.46533031474398
H        -1.10618226412145    3.40169575023254    4.80062650096717
H         0.02009503119641    4.34599166534765    3.83171357439250
H        -1.68807837186493    4.78074214676646    3.86708480470941
C         0.56513060486672    4.79543717544146    6.49796282072867
H         0.76368706679179    5.45516028673242    7.34010937675518
H         1.46726199796373    4.72540744644673    5.89650342406250
H         0.33924706460167    3.80487253901006    6.88427694466228
C         3.74774292964910    9.52726437671982    1.61531192144914
H         3.31260376260354    9.75030408738439    0.63213582296117
H         4.26457287046059    8.56187070684445    1.54876590510485
C        -2.31992926363838   10.91706404801504    4.14973294633008
H        -1.54359656022311   11.35297177476133    3.52598468714535
H        -3.01659618222992   11.70626713286109    4.42045108216565
H        -2.85644886952450   10.16344183433256    3.57674448615393
N         2.69285411980890    9.50777181760709    2.60568341196712
N         3.15725937745063   11.03456795456327    4.92126299294083
N         1.48391712923172   11.68280936895241    1.36678583018180
N         3.96487935499558   11.81563457318707    2.46594515712737
C         2.39533773873925   12.36302507499682    0.65325815829992
C         2.83125923095331   10.39130281444458    6.03979285375325
H         1.87085440800993    9.89393427312408    6.04315846650654
C         4.65142271081802   12.44246402715214    3.60907138169639
H         4.25528803414984   13.45478595490193    3.75104913442706
H         5.73420273247754   12.51050420978562    3.44310463934632
C         4.34197535907357   11.66982104225472    4.87159928662939
C         0.31608391118724   11.39395483364943    0.79363838844303
H        -0.38791384883241   10.84531527257346    1.40648257852185
C         3.67736583205261   12.73949065237099    1.35920119982913
H         3.51738367331949   13.74021727957030    1.77603453192991
H         4.50977753559546   12.79293306558411    0.64616682491245
C         2.15467934173570   12.76127124072305   -0.65333661206760
H         2.91044833134184   13.30863835193386   -1.19443217500571
C         3.65143416593416   10.34576868883831    7.15335484705317
H         3.33202163787978    9.81605029147961    8.03559824667467
C        -0.00287177760301   11.76643197255930   -0.49954259920909
H        -0.96758941916992   11.51723704665466   -0.90973114697597
C         0.93582757394364   12.46484979726425   -1.24276445469210
H         0.72521337867758   12.77536642164629   -2.25366596103575
C         5.22263766595666   11.66079197904461    5.94260478393462
H         6.16411501706046   12.18168377000574    5.86559765824127
C         4.87510744498140   10.99356092242506    7.10673900430424
H         5.54307669504098   10.98342038893501    7.95327811598262

