50
CSD_code = BARPUH | q = 0 | S = 0 | Stoichiometry = C12H28N4NiO3S2 | MND = 6
Ni        3.37696849182030    4.76666809507565    0.39098447416454
S         1.62885306618737    4.34335476302774    1.75653599906999
S         2.56631901174454    2.08874549083359   -0.58915095578652
O         3.51805209396283    2.92961438081446    0.19078051838053
O         2.32142639631936    2.62920189155520   -1.92175125065658
O         3.02814442179454    0.72428780158077   -0.56281904045167
N         5.29864754196671    4.96095755244223   -0.85414838903708
N         4.96305776820646    4.92948724217151    2.13194690301019
N         3.25234993449028    6.71823278298189    0.79307356046607
N         2.61953345794727    5.37539959172741   -1.70029506232781
C         6.36280628260061    4.04967271981501   -0.43058720235954
C         7.05580871892357    4.51490665104824    0.85030754385061
C         6.24713301860168    4.24534378710245    2.12221407139405
C         5.01032245484827    6.34201430423509    2.47481620634079
C         3.64796397982887    6.97216407322202    2.18306710454084
C         1.99226800984416    7.40092711250692    0.46700933416347
C         1.78980156197549    7.60820234521020   -1.03347790325816
C         1.51237427048182    6.31144125138757   -1.80392409874280
C         3.72709051893988    5.62680337192345   -2.61175924760587
C         4.87577264579619    4.69466383958900   -2.23007659652117
C         1.23002693874341    2.58263786755265    1.69856063957270
C         0.96701218900533    2.13208255465873    0.28706283305551
H         5.68285617294209    5.90813835142038   -0.83226475561921
H         4.33645856884495    4.46011231786190    2.78810611457031
H         3.97427283490275    7.12466455754291    0.19603461755202
H         2.30019009004448    4.41289437328943   -1.89670038779538
H         7.12207974181094    3.96748968054017   -1.22749899245650
H         5.91334833816406    3.06649713342182   -0.27745475539141
H         7.29373562328390    5.57927501875940    0.77156997251367
H         8.00155693085292    3.97750831575796    0.94245877206441
H         6.04555463920363    3.17410841545433    2.16869247773070
H         6.85787664804549    4.52577225213822    2.99822863802136
H         5.77370669833528    6.82718774351159    1.85905884543960
H         5.27364838964265    6.51324622930199    3.53190470847513
H         2.88697473759389    6.52635421059526    2.82811888784713
H         3.69269822659228    8.05352911174804    2.38311245839882
H         1.98525766271289    8.39004331414869    0.95053913603939
H         1.17352876744287    6.80964857647359    0.88373014409680
H         2.66680146910283    8.10848477292464   -1.45232310195099
H         0.93730924790810    8.27581639899356   -1.17041354494084
H         0.62862732580423    5.83983033962746   -1.36926678719320
H         1.28933101424918    6.56228581668911   -2.85402495983455
H         4.05072368872733    6.67158874494233   -2.52213981312933
H         3.44667222214034    5.44903609511400   -3.66161476754293
H         4.51416561208347    3.66483387166754   -2.28124678138460
H         5.71373959060301    4.81461401251697   -2.93645431937594
H         2.06319382358951    2.01357615939665    2.11664234170204
H         0.35065691053525    2.46057340455178    2.33757988160963
H         0.32138828120395    2.81914931603109   -0.25427987130800
H         0.58101396960794    1.11803199511636    0.23273640060002

