77
CSD_code = BARPCZ | q = 0 | S = 0 | Stoichiometry = C28H36N6O6Zn | MND = 4
C         4.90495069057295    2.03335659067456   -3.46668045847395
C         5.90631855568444    6.57860268693324   -5.67643653722856
C         7.17107853802355    6.99728049857177   -6.06113585540547
C         7.35628231782260    7.48688658517473   -7.34091470926646
C         6.26443804504025    7.56685013727856   -8.20222985541685
C         5.03923661072569    7.12749836510244   -7.72013774706419
C         6.40788475234950    8.09278136701043   -9.59419300995257
C         2.26438696880695    5.04447268081918   -9.18184098946122
C         2.08669375389482    3.98910178537244   -4.50515832196192
C         3.09449047498990    2.89662156948733  -10.10343845434437
C         3.85707761627030    2.66430692657876   -8.81352268282350
C         3.68748620308344    3.76898935748330   -7.79589774815800
C         3.34724442671286    1.35085995507709   -8.18023598660935
C         1.86741710482100    1.42199849086573   -7.82067568094931
C         5.35759985894245    2.53752241848251   -9.15196185220595
C         5.92664358697287    3.82803880089740   -9.73121236057357
C         0.89010275331204    7.44343605270122   -6.63470852772898
C        -0.09303679808412    8.35480770783638   -6.27970709797684
C        -0.03544834173868    8.95578635813232   -5.03561627867411
C         1.01667152328091    8.64319248388803   -4.17794719416775
C         1.95273552912100    7.72252499371002   -4.62735987209466
C         1.12717403314131    9.26063662248321   -2.82080591056490
C         2.31656708310653    2.87563220446526   -2.33755885760650
C         3.54997713950117    3.71431169064197   -2.08927596996894
C         3.81183417102412    4.81156446704051   -3.11815721082326
C         3.43599249007420    4.35746126857258   -0.69360677975473
C         2.24835167782534    5.30986423963644   -0.60677701435693
C         4.77153662118743    2.76378737794539   -2.13436349176894
H         4.06538672961710    1.35789510787281   -3.62223063591184
H         4.94450426774252    2.73111175704385   -4.30149812873830
H         5.81833490137356    1.44220234486768   -3.47121809262779
H         5.71147661603923    6.19848803166343   -4.68311623729940
H         7.99429673068799    6.93242549412543   -5.36744117949474
H         8.33245735087170    7.80844391184472   -7.67534172201654
H         4.15700763269104    7.16918899984908   -8.34414170227870
H         6.80085039179249    9.10800380594337   -9.57734758013772
H         7.10498778626579    7.47581077488393  -10.15912064567826
H         5.44991318489691    8.09522231306186  -10.10633987875451
H         1.84786096930833    4.22765175234399  -11.01441146965173
H         3.51766226772763    0.54183294933843   -8.89344056581875
H         3.93645146490912    1.16145052237456   -7.28117164218209
H         1.67222202250975    2.24812010137003   -7.13883779155059
H         1.26012353150402    1.55980919430934   -8.71347943700403
H         1.55876009219183    0.49604667442194   -7.34015665597448
H         5.89152462470984    2.28164682666436   -8.23552930323603
H         5.47599804816290    1.72555193939263   -9.87160022877888
H         5.41864183456588    4.09350484441950  -10.65656474150402
H         5.81275277862148    4.64844872221648   -9.02373253444429
H         6.98567272321569    3.70408586037627   -9.94656824857466
H         0.89151633205729    6.95825156852060   -7.60075931188602
H         0.89080461933020    2.50563572211401   -3.76720860657182
H        -0.88978017327047    8.58289031230180   -6.96981478864025
H        -0.79211847494728    9.66335585131252   -4.72728035624492
H         2.79401295877796    7.44599959247647   -4.00698591327702
H         0.34184972011921    8.87572387365325   -2.17073152739483
H         2.08942789760293    9.03300052508150   -2.37059282085742
H         1.00920503824059   10.34088508922835   -2.88062411924816
H         3.32553464546621    3.56397151314141    0.04690049258934
H         4.35891191026919    4.90399574893050   -0.49504900938151
H         2.33532719065058    6.09865825883151   -1.35206187594807
H         1.31412700574502    4.77666190506007   -0.77294603039165
H         2.20894611050740    5.76962855769294    0.37800093341760
H         5.66472738238963    3.36421354578275   -1.95047974854280
H         4.66759333365079    2.03640573538040   -1.32623976471447
N         3.09846433507067    4.82289182860858   -4.26734339638729
N         4.86458549777561    6.63555767165261   -6.49738953731554
N         2.93225200980579    4.84404013826256   -8.02661373187901
N         2.37087865573591    4.05410494621580  -10.16215175776809
N         1.88822018487018    7.13209165448476   -5.81685194777442
N         1.69441006792898    3.08279135893665   -3.54440581939829
O         1.60996639862533    6.03928018187836   -9.41578831782690
O         1.47604271324462    4.05188179409118   -5.57151289943624
O         3.11884829857890    2.12555924202833  -11.03356185903268
O         4.27181557886939    3.70513689765735   -6.70994909572220
O         1.89253150381054    2.05746580813232   -1.55823837429631
O         4.67183656981125    5.64998109442960   -2.91331073323401
Zn        3.13528935348601    5.50092397284451   -6.13986520582089

