74
CSD_code = BARRUI | q = 0 | S = 0 | Stoichiometry = C29H42NPTi | MND = 8
Ti        0.85904738787930    2.81634516292230    7.10102619640109
P        -2.43221741397710    3.22727442832439    7.14840536965204
N        -0.89006234367191    3.12428816691935    7.26009113554641
C         1.96523546218164    2.15889493749812    9.12552436247945
C         1.00673380626054    1.17592150093909    8.82154249048573
C         1.36671041891231    0.58360735249128    7.59332047686984
C         2.55744360529010    1.19864350638081    7.14670332056846
C         2.92303725146797    2.16955814918040    8.09338753381264
C        -3.21198692339348    2.60510493325527    8.80462558426832
C        -2.33581692567567    3.15086532447815    9.93511134609576
C        -3.04328557620796    1.08507866601287    8.82075399630460
C        -4.67900430358214    2.94877760538052    9.03988623770646
C        -2.94411919513448    5.06418322498716    6.84042003175142
C        -2.75748367613358    5.81738715115219    8.15752465679071
C        -1.90959518639455    5.64487485680212    5.87508429099172
C        -4.36377814110423    5.29106102592937    6.33202624716245
C        -3.06070950463922    2.12046550897419    5.69054458794937
C        -4.55748469918597    1.82895961870812    5.65050654978325
C        -2.25855287347738    0.81730303596885    5.74285813387369
C        -2.64403409419532    2.83381400140628    4.40392738689683
C         0.93685908940582    2.84651621724624    5.03383602468874
C         0.93223328815154    4.02328255544848    4.26950625243130
C         0.93781704951040    4.01025890259626    2.88214691960406
C         0.94052549381043    2.80939887391450    2.19447503496880
C         0.93510678994593    1.62726809721235    2.91218838418844
C         0.93222089457202    1.65217473224979    4.29978685640867
C         1.56131563926991    4.70413324008454    7.51074564512213
C         1.09216643615486    5.44239409721772    8.60096645941391
C         1.63558942235864    6.66958364701975    8.95212754535660
C         2.68620463052657    7.19597311130717    8.22134760384894
C         3.19238560488640    6.47891504849024    7.15081176714020
C         2.63943464307039    5.25371242941660    6.80796057808327
H         2.01902211072907    2.73214867501063   10.04389099169654
H         0.21485324009945    0.83848668795624    9.48082043567970
H         0.89989959347783   -0.29551714670277    7.15928150181796
H         3.15471332175179    0.88764426238978    6.29690505109094
H         3.83854804684494    2.74848847848119    8.08891507400967
H        -2.46294021569505    2.54347009094624   10.83115530721127
H        -2.58281017983462    4.17392406177183   10.19733364714687
H        -1.28635203622430    3.10435182937302    9.62875640816370
H        -3.21425935365220    0.70480413647423    9.82860876979901
H        -2.02827698672234    0.82447045445149    8.52235257039551
H        -3.75385346310717    0.59138118211922    8.16486963176964
H        -5.01397850952774    2.46362469846910    9.95759885808783
H        -5.30666825039376    2.59756549836306    8.22604475389835
H        -4.83389611163262    4.01714927936411    9.15877266221069
H        -2.81332125022582    6.89051177662495    7.97343559750048
H        -1.77328258159157    5.59754948833876    8.56427880393453
H        -3.52530772365203    5.57358981764865    8.88535177461270
H        -1.93837136591517    6.73328015526483    5.91566579208834
H        -2.07929656241116    5.34814280799685    4.84605580410527
H        -0.91355133545306    5.30892033677341    6.18112406577325
H        -4.55934030177717    6.36337871218064    6.29833455582555
H        -5.10046664464577    4.83664878487726    6.98874605755577
H        -4.50405756609453    4.90238772081971    5.32777054886209
H        -4.78446954659980    1.28033675663402    4.73571280864070
H        -5.14482320159399    2.74206629367455    5.64799100561565
H        -4.87565606070931    1.21436898608695    6.48816264709517
H        -2.18972616952542    0.38533742916359    4.74510953259575
H        -2.71131586786180    0.07333354796773    6.39066399149701
H        -1.24343499702902    1.03905469951833    6.09149122412957
H        -2.74789237449680    2.15642284005564    3.55592647409188
H        -1.59764496843679    3.13305494476746    4.47373731345994
H        -3.26326170440652    3.70192468080679    4.20015663009873
H         0.92068146456117    4.99075874942481    4.76643163652291
H         0.93803310389165    4.94400721217630    2.33548899323233
H         0.94545125530072    2.79497588405632    1.11364951940932
H         0.93488475341866    0.67913132160106    2.38997457852140
H         0.92440320738217    0.69086126544728    4.81120350030934
H         0.28219808199612    5.04132084771929    9.20921085493619
H         1.24252856613187    7.21400685825695    9.80096059961017
H         3.11443298441536    8.15151113770277    8.48997972057604
H         4.02519678740284    6.87400593325487    6.58377979399866
H         3.07487275492486    4.70949971276845    5.96923150578135

