30
CSD_code = BARROB | q = 0 | S = 0 | Stoichiometry = C12H14Cl2SiTi | MND = 12
Ti       -1.06291550783243    3.08310094586084    2.45182094200235
Si       -1.06256268512914   -0.22733735688847    2.45188744228217
Cl        0.39323815652121    4.61819874640747    3.11921936640213
C        -1.60554384991660    1.14236052442470    3.63753689079542
C        -2.78805814047737    1.91096072141316    3.48934702576939
C        -2.67194720634295    3.07119006282197    4.28710851919780
C        -1.39664280097559    3.06933945441059    4.87146962870297
C        -0.71957745505758    1.90806983635039    4.43729459329513
C        -2.50070604089499   -1.28157298068669    1.78984237787358
H        -3.69274720164853    1.58867285780185    2.98768144379466
H        -3.45188334093710    3.79996203166043    4.46537286207405
H        -1.02055852030082    3.79653228851974    5.57921423729224
H         0.25038102444086    1.58259325863928    4.79391929398100
H        -2.87976047285058   -1.94094895660198    2.56340167694291
H        -3.32717563638876   -0.67166065363005    1.43968893689374
H        -2.17186999026477   -1.90115870100786    0.96231582629717
Cl       -2.51783107812102    4.61969345796507    1.78416623783246
C        -0.51957986603567    1.14242384123321    1.26631628911871
C         0.66279501558575    1.91119907933886    1.41475855809991
C         0.54665150430791    3.07149917584605    0.61709064647520
C        -0.72844154141953    3.06929950986737    0.03225748810840
C        -1.40547032837440    1.90798094960101    0.46635057767414
C         0.37562849077838   -1.28150427182182    3.11390608687019
H         1.56755187607456    1.58884348171111    1.91627014028740
H         1.32661188176518    3.80023657737026    0.43875716403926
H        -1.10452168837439    3.79648554053636   -0.67549044448057
H        -2.37544982384741    1.58252261635885    0.10978367573428
H         0.75443757231292   -1.94120438088484    2.34048014138577
H         1.20230791872072   -0.67153949776103    3.46365182684374
H         0.04693973468193   -1.90073815885598    3.94178054841440

