66
CSD_code = BARROC | q = 0 | S = 0 | Stoichiometry = C21H40Cl2NPTi | MND = 8
Ti       13.97633756026867    5.98063168151455    2.41086778063234
Cl       13.33758425313063    5.75529668970040    4.50598300613932
Cl       13.94672441521357    3.85552943452005    1.83838788305526
P        11.04795447829580    6.71950663773621    1.14477396645181
N        12.50484679294165    6.58272080889988    1.68634560199073
C        15.39386104971054    7.70132895563599    2.98742660917851
C        16.10067085415762    6.50439760644844    3.26058924750830
C        16.30925227974821    5.82502277010382    2.05192723392070
C        15.73093631129876    6.58620100899159    1.01198663063317
C        15.18825548372629    7.76199821452912    1.58716869579980
C        15.08536610051533    8.78726978852287    3.97896896346064
C        16.31982794010507    9.66863099752619    4.21553410301769
C        16.04051608667832   10.78404076299517    5.21893785152612
C        17.26887395630986   11.65460069007595    5.45315423331836
C        11.00738070376461    5.96185564998168   -0.62226167382497
C        12.34021813891952    6.29758406067433   -1.29533456367644
C         9.82771610554153    6.39724903036314   -1.48562186782456
C        10.98735925188612    4.44198200462751   -0.45651197769870
C         9.81542008707875    5.81331534234247    2.31190064832923
C         8.40557423633550    5.64842955618477    1.75216609122114
C        10.40906588164922    4.45265273907908    2.68472197393548
C         9.76991351680671    6.63354724945854    3.60157558836481
C        10.68361852172141    8.61088440235970    1.10840225403632
C        11.53186133422749    9.18636796346559   -0.02642778970831
C        11.23654681691751    9.20159854394887    2.41032283828596
C         9.22578550122404    9.00778832479787    0.90693285020290
H        16.47132303110028    6.20516838870128    4.23318863921743
H        16.87469340848692    4.91066122568664    1.92251851738925
H        15.82251032620004    6.38027226245281   -0.04885130006139
H        14.80127326784458    8.61638090688962    1.04375800790182
H        14.26665511328506    9.41210938520979    3.60628068605720
H        14.76949770893686    8.34654978437966    4.93065950389230
H        16.63577800186511   10.10318534001453    3.26359618893661
H        17.13938800696203    9.04654508952116    4.58233343873133
H        15.22034633414976   11.40491269967138    4.85024453007336
H        15.72111038180279   10.34403557899122    6.16628280333529
H        17.04985448953751   12.44198451846408    6.17068711983676
H        17.59181657039784   12.11752675325275    4.52309167253724
H        18.09133561974474   11.05704572792337    5.84006640875498
H        12.38856845767539    7.32025334166052   -1.65331762992786
H        12.48982233993213    5.64079943769894   -2.15127306922844
H        13.15389464161637    6.12504314188151   -0.58133857869951
H         8.88058135283514    6.20713313782361   -0.98854707178860
H         9.83994582994099    5.82872790979855   -2.41569213709111
H         9.87780383250414    7.45108786723342   -1.74510495608224
H        10.02201634008513    4.08245353776332   -0.11415481723697
H        11.76910742401932    4.13311894133819    0.23828955037660
H        11.18582048103370    3.96994949851113   -1.41881555178064
H         7.97521258806098    6.60026382726188    1.45470087491651
H         7.76895596387241    5.21730709557750    2.52480770227186
H         8.38547507287191    4.97681156641754    0.89844136587874
H        11.48749354423793    4.54433115971190    2.84547802193021
H        10.22781472183667    3.69098969018821    1.93450946660555
H         9.96130644800729    4.10728427372659    3.61581908245036
H        10.78530408603131    6.82835616990081    3.94985529392746
H         9.25266193958225    6.06643791180962    4.37497579469763
H         9.23310144094990    7.56820223886298    3.47169975131293
H        11.13403285713986    8.92963031881477   -1.00349743805699
H        12.55331413355167    8.81826297694765    0.06282434747101
H        11.54988740380773   10.27433991287143    0.04105649296863
H        10.51715006781174    9.17040698952276    3.22115609791887
H        11.50942931386951   10.24499238889988    2.25671894282391
H        12.13189615108418    8.64755765524552    2.71157117696599
H         8.60937137619503    8.72432480606537    1.75538970670106
H         8.80962981359051    8.55987342335667    0.00891892587889
H         9.16395245937199   10.09145220547072    0.80305625991526

