51
CSD_code = BARRES | q = 0 | S = 0 | Stoichiometry = C18H28Cl2NPTi | MND = 8
Ti        5.57885913356835    0.23532495827367    5.35133356220627
Cl        6.11744413716208    2.24538933765635    6.03597116384644
Cl        7.12741009598996   -0.82998518306792    6.46603455563552
P         3.26203083411688    0.28319305977160    7.45727314257866
N         4.08450584313759   -0.16418530110921    6.20404306249260
C         5.20060712810470   -1.14508891180899    3.53229841304959
C         4.41182762304957    0.01330415581990    3.34664174565826
C         5.25307579063009    1.13982604771948    3.24551054175511
C         6.60446541708318    0.67417044047924    3.25539492919455
C         6.57109532597085   -0.75546042449596    3.41461863306704
C         7.77088391657968   -1.48820925896601    3.40692873989499
C         8.95664039103082   -0.81205502633426    3.26445273867499
C         8.99140397535529    0.58723110784135    3.13619561852982
C         7.83939606754900    1.33463335571993    3.13083296680377
C         4.09076014685160   -0.14608112249743    9.07823094400894
C         4.52322396598497   -1.60422624137500    8.97002386099057
C         5.30024352975149    0.75720732881483    9.28741811660790
C         2.96568979428311    2.12955281399096    7.45614719219794
C         1.99325001803980    2.61677655654167    8.52164517204530
C         2.53026075074038    2.53290314531759    6.05117687160450
C         1.57089140469182   -0.52714080467424    7.41145393545676
C         1.66038727209271   -1.80265160422669    6.58144602690271
C         0.93997011288810   -0.78435858321821    8.77413635346145
H         4.83325299904157   -2.16516707548694    3.53999473256914
H         3.33173540791157    0.02442656356793    3.24457553050980
H         4.93829076492632    2.15126301982965    3.01328324976200
H         7.74982964005908   -2.56569807896746    3.50960230754729
H         9.88781168657519   -1.35929830226077    3.25296056237565
H         9.94862606582276    1.07746508319379    3.03467502649379
H         7.87111364501571    2.41090950447420    3.01551817046655
H         3.38208015556855   -0.02018201987024    9.90254102484761
H         3.66535420234711   -2.26739459773418    8.87719573686251
H         5.09231025676203   -1.90013448186739    9.84977794038220
H         5.15429438457353   -1.72621107850249    8.08604438875868
H         5.00556377412876    1.78277470174007    9.50074004423801
H         5.93014574250249    0.74718097692381    8.39252521560372
H         5.89352398823722    0.39365933398554   10.12531609964772
H         3.95897620629810    2.56148634339670    7.63172206284837
H         2.29896036145733    2.28876204130162    9.51256835130206
H         0.98579483230989    2.25612374914695    8.32550780719879
H         1.96498844762920    3.70546180719773    8.52014115084771
H         3.25016702000992    2.13839612284708    5.32564394063821
H         2.50355547892766    3.61733031169338    5.96211996014754
H         1.53989219332858    2.14446240845123    5.81577557671392
H         0.94720271639320    0.19088352760018    6.86284869881584
H         2.24921527459654   -1.61265719166824    5.68325553166692
H         0.66731748641259   -2.14449805263006    6.29504086515916
H         2.14936145538078   -2.59627857419530    7.14142991588196
H         0.90105366251573    0.11980532401423    9.37577669939383
H         1.49371692900923   -1.54187145209480    9.32323193124448
H        -0.07885745239430   -1.14686976026280    8.64057919141906

