83
CSD_code = BARSIX | q = 0 | S = 0 | Stoichiometry = C29H49ClNOPTi | MND = 8
Ti       13.28156750673447    3.42447373460200   17.24168579222126
Cl       13.21848306195676    1.74447165064880   15.78970634766507
P        12.49452593183376    5.59870096887496   14.90109511771306
N        12.81544812009013    4.78830729442871   16.18616969370907
O        14.98125913668115    3.60753041436731   17.38040746530187
C        11.57540062771453    2.18996884765053   18.34295051896382
C        12.76932388326514    1.94429889780014   19.05176060249231
C        13.21271944003720    3.15913245915324   19.59758925432200
C        12.30657792360186    4.17168356098924   19.20750928404008
C        11.28297815056041    3.56298055326656   18.44081852973821
C        16.03316777393613    3.53796196934351   18.19005110674340
C        16.75890459314838    2.33139085679963   18.29175252759523
C        17.84591562392552    2.27523431005797   19.14660341252529
C        18.22055972437877    3.37551807496310   19.89905351893766
C        17.51206539159367    4.55669759005940   19.79268736250798
C        16.41983954270196    4.66118577611101   18.94513953659960
C        16.32121157662916    1.17101202699645   17.42819827117101
C        16.82857742983203   -0.18589009468521   17.90761485859278
C        16.76007469722972    1.42620677959107   15.98083450178842
C        15.66526642444638    5.96287180605582   18.79432944510811
C        16.56966587847143    7.00837298112812   18.13516946485895
C        15.14891730459500    6.48407282269160   20.13728934535321
C        12.78635614450161    7.45804643227057   15.32302656280789
C        12.27461842444710    7.68422387810293   16.74838142140249
C        14.30349931889224    7.63825279340235   15.37671669644457
C        12.18244192995220    8.48070252175645   14.36741915125214
C        13.63599706922437    5.07510672327362   13.43075333885892
C        15.02025422563396    4.79569712798680   14.02387745259760
C        13.11707266805964    3.74206237836765   12.89029985773938
C        13.72272741112674    6.06786301330945   12.27419064832974
C        10.64565355656084    5.31370091667696   14.42701582931238
C        10.36888331674764    3.81366634526103   14.56358650637189
C        10.21364361224720    5.81944201929750   13.05454508920122
C         9.81826028978349    6.01642886740507   15.50440526216200
H        10.94231229757042    1.43563835529240   17.88921847840916
H        13.20901803746310    0.97045791492752   19.22814362654950
H        14.05508829315464    3.28004634409768   20.26807003486637
H        12.29923349031198    5.19378950504908   19.56756919931187
H        10.36390621202037    4.03905236321931   18.12019147422052
H        18.41336306756607    1.36230088404092   19.23373694159314
H        19.06931156610399    3.31100945178797   20.56361540736420
H        17.81560299551556    5.41256918999378   20.37722081213821
H        15.22057456838343    1.14653899963802   17.43749701842483
H        16.35212405457582   -0.97497583608118   17.32972989302452
H        16.59408630303753   -0.34017105315230   18.95900780338501
H        17.90439715693878   -0.27250601120735   17.77036621803229
H        16.41298069342956    0.62068169173418   15.33778036868658
H        17.84567239568594    1.48809988136529   15.91983011735035
H        16.33061715658937    2.36074809734029   15.61922045028831
H        14.79913708808689    5.77400277052017   18.13604223924163
H        16.02919816580372    7.94058696600549   17.98791498907867
H        16.92340591338323    6.65092986751636   17.17057793557369
H        17.43577295082512    7.20897501150039   18.76207523897626
H        14.55852887270418    5.72546442412627   20.64578947260465
H        14.52516622250629    7.36246923012123   19.98174282474616
H        15.97455080449301    6.76496242867450   20.78709099944928
H        12.77270716855312    8.54747262930605   17.18880912584056
H        12.50403594843094    6.80453736180044   17.35411435578012
H        11.20679646758077    7.87137867158403   16.78433318773391
H        14.54892868821283    8.57835559281798   15.87127159953078
H        14.74656166046251    7.67131234226996   14.38646042327323
H        14.74194170567291    6.82112017243271   15.94714590191893
H        12.51767207975175    9.47727883251964   14.65745484948522
H        11.09649578259284    8.47782998536387   14.40335170331346
H        12.49616830467724    8.30644113338808   13.34258004373323
H        15.57248856868941    4.12448913969473   13.36666793035796
H        14.90522091476543    4.30474644106480   14.99920350784635
H        15.61368220634098    5.69645100558073   14.14585755521601
H        13.84997279762351    3.32442349327046   12.19937310000264
H        12.18795838585010    3.85796418640636   12.34096280549905
H        12.98242381026773    3.03147717774049   13.70370324115731
H        14.31209299469533    5.62146424549188   11.47271375871440
H        14.21004704338985    6.99570105483125   12.55867876963537
H        12.73870691986775    6.29980568372766   11.87637215451550
H         9.30566150190444    3.64641828991387   14.73525912661812
H        10.92535915995743    3.40907755543214   15.41626695465338
H        10.64774688409707    3.25610952190029   13.67624653066121
H         9.13673875997215    5.68234128586287   12.95027819370842
H        10.69311385069891    5.27095580549159   12.24929931132524
H        10.43106855286161    6.87639516234753   12.93069760577319
H         8.78270096508180    5.67832296243150   15.45744592454852
H         9.81316478830369    7.09433110807213   15.37160353471928
H        10.21613807290240    5.77285238470702   16.48828348672404

