64
CSD_code = BARSIY | q = 1 | S = 0 | Stoichiometry = C18H39N2P4Ru(1+) | MND = 6
Ru        3.44060447110800    7.26838146239679   10.08864368217087
P         4.15038795694917    6.95605860851635   12.26295966118869
N         1.40387792105888    7.14337069642372    9.80165550679425
C         0.57119488206116    6.05166959138588    9.76964040005808
P         3.02168299224971    9.43265529016606   10.79194085413775
N         2.00849228196554    7.52685410641218    8.62023371933342
C        -0.13769281962986    5.67513680727125    8.61811899859254
H        -0.04942032287729    6.24295538972027    7.69922794818495
P         3.75357492305038    5.06454135686201    9.47420169288787
C        -1.00893603017385    4.60212408033135    8.65254112697173
H        -1.54275386430187    4.32957301873447    7.75399220119596
P         5.50061022179067    7.62348450920510    9.09793650365835
C        -1.20799496179712    3.88780943852691    9.82018231241237
H        -1.88861054032729    3.05177976106968    9.83732669925280
H         1.89572526120045    6.85708052842069    7.84415045452161
C        -0.53799590666503    4.27221346860463   10.97322644913690
H        -0.69974178043027    3.73317348825295   11.89521267543156
C         0.33677067879477    5.33597098715981   10.95136404007736
H         0.86671362526917    5.64036935469318   11.84056538106528
C         2.92536576218976    6.38570033238245   13.49814476744813
H         2.71061254507922    5.33103402416741   13.33163360612074
H         2.00366145702075    6.95459201683339   13.38387075469804
H         3.32277612289009    6.51893384783760   14.50474069971185
C         5.61701706278125    6.01750659398625   12.83653531643654
H         6.50015072206009    6.32579438792431   12.28043505905289
H         5.45978069035744    4.94977791108251   12.69006946165565
H         5.77134451126326    6.21157793556292   13.89793791740713
C         4.56036668463472    8.62662935704095   12.93555946344339
H         4.71615581919789    8.56587411890029   14.01663805477711
H         5.49477925242816    8.94651219219323   12.46337291126686
C         3.43311751726597    9.58475791116891   12.58501748458343
H         3.69181383014671   10.62172843036880   12.81878024039010
H         2.52975595878050    9.31700566637533   13.14144453408004
C         3.88970434229754   10.87842967868568   10.07628354638751
H         3.64834725917014   10.95815391289445    9.01625748690608
H         4.96560450385324   10.75401503432573   10.18705200581728
H         3.57034566095708   11.78732878433821   10.58592449602001
C         1.29950355100569   10.04467110085842   10.78165163050840
H         1.23047183029787   10.93463550929090   11.40767903894166
H         0.64078624198010    9.26440328357852   11.16225253524778
H         0.99698535800613   10.30121945397140    9.76595591457410
C         3.10105753678868    4.43988308028456    7.87683225613719
H         3.36868931305899    5.11005357051813    7.05833289154899
H         2.01503539861519    4.35124076300012    7.93936654923338
H         3.52375806548378    3.45364497260712    7.68353338107613
C         3.33969676468434    3.65663001569918   10.55565248222617
H         2.25482918019252    3.57002950561683   10.61921669860342
H         3.73990420156312    3.83008744343545   11.55304002070278
H         3.75809994634723    2.73879861396238   10.14181924449730
C         5.56825073638394    4.84313284142068    9.23026737649904
H         6.03133752361846    4.83704230436632   10.22128400561853
H         5.76621095891465    3.88299947386364    8.74473733703742
C         6.10023908250194    6.00726519669406    8.40673066342715
H         5.72182382153815    5.93754094378201    7.38187228149052
H         7.19299611717818    6.00511103660034    8.36950741139769
C         5.48846685938788    8.62588728746029    7.56287649725867
H         5.40936655017931    9.68153812939678    7.81551113774250
H         4.63367601622237    8.34349251570274    6.94753164421164
H         6.41078466253941    8.45787644772552    7.00640702682343
C         7.03713934808341    8.26764767665833    9.86445552908157
H         7.82279291444689    8.33028869828633    9.11137828163679
H         7.35402707745033    7.60552816601530   10.66847348061006
H         6.85586027342473    9.25875013961453   10.27794897274353
H         1.72872197843919    8.46434774936792    8.30436759785507

