59
CSD_code = BARSUK | q = 1 | S = 0 | Stoichiometry = C13H38ClN2P4Ru(1+) | MND = 6
Ru        0.09210843518532    3.41303437564947    3.26679676842955
Cl        0.75481777704908    2.65609104167966    5.42505040010909
N        -1.02215017895294    0.76824912032780    2.44574754310318
P        -2.11245293760040    2.93416126006663    3.86305999318689
P        -0.31868635797043    5.52503659234478    4.13501090794195
P        -0.06527285421603    4.02612942876890    1.06370910018516
P         2.35234153738996    3.68447371054748    2.98340847592771
C        -2.49559826187583    1.56573881608751    5.00557589235126
H        -1.70897634113692    1.50182570519372    5.75705480515071
H        -2.56425255439156    0.62877923493865    4.45978905971013
H        -3.44765841927746    1.77967819157494    5.49164429516202
C        -3.49496422539111    2.83936208587233    2.66911373183944
H        -4.42403183382228    2.69538659353372    3.21924656764575
H        -3.34904968910183    2.00576048016876    1.98803123209878
H        -3.54871159650222    3.76618782460408    2.10106037378785
C        -2.66682905030478    4.35614522312086    4.90227203336102
H        -3.75797803611380    4.35348776671608    4.98496925903896
H        -2.24048868069225    4.20464866201806    5.89947475425304
C        -2.14896404341235    5.65571207876323    4.30775189981201
H        -2.39641651561016    6.51790075215993    4.93464063572415
H        -2.57289217031717    5.81299328334388    3.31045293174286
C         0.05640110337383    7.15159404334335    3.37632072582846
H        -0.40489085859213    7.92908103048725    3.98512179634865
H        -0.33945753787786    7.20649586537355    2.36470942707068
H         1.13174193158188    7.31976017625040    3.34713469094591
C         0.22001617490151    5.84389308202278    5.84879471185868
H         1.29812267666892    5.99024830456900    5.87381897679677
H        -0.02206687724535    4.98876509140080    6.47734920194178
H        -0.27963923002172    6.73860336907169    6.22134634610646
C         0.03274303534031    2.73651223142169   -0.24331746703395
H        -0.93398938229343    2.24331381660632   -0.34448104189379
H         0.79645614627154    1.99753835092346   -0.00223983965169
H         0.28028858362630    3.20848732569921   -1.19421511246043
C        -1.33724760714493    5.10247650540014    0.31025361778191
H        -0.98960681433352    5.46219282030290   -0.65829508035433
H        -1.55204631809482    5.94762731872311    0.96073963808841
H        -2.24996256525323    4.52389622111522    0.17194314760096
C         1.47945616156106    4.98090879734972    0.70348954931251
H         1.56513949454698    5.15150412774251   -0.37405384516362
H         1.37802217100344    5.94879498928547    1.20228654044685
C         2.69414140722101    4.24043573051136    1.24966841957306
H         3.58785952288664    4.86874403318635    1.22482947313972
H         2.88935080822726    3.34672723522488    0.64911015311162
C         3.24877199810818    4.88810457154410    4.01172174095502
H         3.15952719107103    4.56785434722413    5.05018447542078
H         2.81140351942895    5.87862361442536    3.89728637530384
H         4.30049933989786    4.90951549923422    3.72411309069550
C         3.45671584564744    2.23986816636458    3.15932957248126
H         3.21520606330725    1.46508994922297    2.43192304923496
H         3.34040300415133    1.84252263952651    4.16844679830354
H         4.48882704014785    2.55751101950165    3.01025887620160
C        -1.04103157924902   -0.68586994800876    2.41963273619294
H        -0.26710659035390   -1.11245436542488    1.76746962235726
H        -2.01432129328820   -1.01954725218487    2.06815625336544
H        -0.88982292384318   -1.06258065423532    3.43180729645998
N         0.22844253291466    1.28802328971469    2.87182416396824
H         1.01276357460934    0.89872185877397    2.32382694265160
H         0.37521052963170    0.98747815536729    3.85100551241561
H        -1.20491428147549    1.12895641546400    1.50883880403528

