102
CSD_code = BARVUO | q = 0 | S = 0 | Stoichiometry = C41H54N2O4Zr | MND = 6
Zr        3.71136579767343    1.96877103303616   13.61659997797794
O         4.59132951077011    3.42459577001413   14.72190601563210
O         1.99799418063581    3.01657350502644   13.64589850847409
N         5.28720820011566    0.49586554337734   14.44143988513515
N         2.88248564719513    1.19573912954523   15.59209758972095
O         4.81651697494326    2.29508585660124   12.06866043447179
O         3.01149415998298    0.26609868184294   13.03714029266968
C         4.96254246471237    3.24351837942836   15.97228517351693
C         5.71683431844706    2.08912590684842   16.28724093477889
C         4.70314404900286    4.17025503847272   17.02083331059429
C         4.25999592994875    5.59329840396125   16.69834459582893
C         3.56948040490196    7.60282214622109   14.64551500981221
H         3.64426529412576    6.98809960377600   13.74601576538360
H         3.28697187435855    8.61434268900790   14.34169518166462
C         1.15408569435325    3.36967085515169   14.55817514726250
C         4.96151317560546    3.76476974385231   18.31927078709030
H         4.72056105950117    4.42064395124401   19.14090974725915
C         4.14751358442780    6.48642202322395   17.94070507509472
H         5.10452664576330    6.51591077396861   18.46656718665072
H         3.38985436764934    6.08641143002747   18.61854255341087
C         5.31292105401730    6.21053278367372   15.76160416326679
H         6.28378853249881    6.21829580997193   16.26464243430750
H         5.39902462607862    5.59226246515938   14.86792363618283
C         4.91656501117082    7.63052613742140   15.36549188175191
H         5.68078771845257    8.04349769669039   14.69589744384985
C         3.47180084132202    0.00737787110109   16.00282446483174
C         4.66377677537950   -0.40282197732800   15.37165052379642
C         2.86246446872860   -0.86610673215090   16.91126370832450
H         1.91241179887581   -0.60248283328073   17.35109585649963
C         5.96945040418260    1.73314272632996   17.60127835298531
H         6.51664913107067    0.82302421154966   17.81154809449501
C         0.17476615404546    4.88922378395255   12.82826096260780
H        -0.62490879659550    5.61121639760550   12.68442623128151
H         0.05412975380325    4.07558288958909   12.11251365475677
H         1.13213848401789    5.36853721234646   12.62233552385010
C         6.29825301907901    1.30778273192881   15.14046867803927
H         6.71714440199626    2.00720316061919   14.40250002702099
H         7.10656102224894    0.65610792017197   15.51816562774245
C        -0.71951672461830    4.28553562645368   16.47331964559246
H        -1.43420254770098    4.64841493575147   17.19568723699012
C         1.14588752520642    2.84474861240176   15.89057832229939
C         2.90355255508663    5.60398736198116   15.98647586296638
H         2.96549665848465    4.97081358543016   15.10039335842787
H         2.14314088184351    5.19166030152051   16.65313567390261
C         5.53613315682157    2.53808090786705   18.63933266938365
C         5.88685092283024   -0.18691867064059   13.29135733048176
H         6.82434397330544   -0.69816638505638   13.55265013862039
H         6.08155677449386    0.56210419094804   12.51821523364662
H         5.16257357250806   -0.90323862511238   12.90210407671141
C         0.16574836674211    4.34987272444797   14.22698340880798
C         3.75261230745381    7.90981379794294   17.54366705383702
H         3.67961349539061    8.52380736848108   18.44995882923079
C         4.81111128358856    8.50083561672677   16.61552112417164
H         5.77630834848246    8.53754734871949   17.12636763299506
H         4.53811881026264    9.52283860970848   16.34071924426927
C         2.01743313722739    1.80884200424148   16.32906800450786
H         1.88512458010205    1.51534013467253   17.37927533806572
C         5.21835455460254   -1.63305902840432   15.69338121137535
H         6.13482947071274   -1.95273408063078   15.22133361114047
C         2.51196411540851    7.02298537268096   15.58224884277785
H         1.54232156756100    6.99131079860393   15.07132455909482
C         0.20388959927581    3.33772142215447   16.81884068283385
H         0.22211189771193    2.94115401258263   17.82473883428730
C         2.40194175074922    7.89345837258315   16.83147973967914
H         1.63306526714649    7.49172018325181   17.49579522673001
H         2.11172383121408    8.91118493557210   16.55835594753152
C        -0.73314735499026    4.78443621309235   15.16684242875356
H        -1.46540977431830    5.53184923981831   14.89466962415406
C         4.61322605221641   -2.47292673292023   16.61442069192878
H         5.06014511368256   -3.42718806682256   16.84836443001286
C         5.74828877005821    2.15143120616170   20.07421581380388
H         6.07140325160061    1.11601749271270   20.14992361628630
H         4.82849506255588    2.27216005946835   20.64462833320421
H         6.50916916548650    2.78307678720058   20.53356676007450
C         3.43071678959212   -2.08685191789105   17.21926813509117
H         2.94107854688365   -2.74333256374497   17.92285397792375
C         2.01345890286742    0.09084590177019   12.09522236633844
C         5.13763069464920    3.52566728998703   11.50882545318938
C         5.37278334940984    3.35790825868107    9.99136928104217
H         6.14893009799183    2.61455525408202    9.82267804433842
H         5.67982967842640    4.29933933089131    9.54259449045121
H         4.45940565742933    3.01549614113415    9.50967951212610
C         3.98948841047122    4.53280574331715   11.73540308553138
H         3.08281500329046    4.16444933824001   11.25076796114558
H         4.24198215597622    5.50944633863491   11.32294153485859
H         3.81433907414581    4.62079016542784   12.81103275377776
C         6.42726131077372    4.07497628947847   12.15841427832799
H         6.27475640451330    4.14650473798274   13.23471418372987
H         6.67733368867297    5.05714288013817   11.76362954052734
H         7.25632840878930    3.39617716305047   11.96235740871193
C         2.04822907117256    1.23109129894515   11.05248164584897
H         1.74593061265896    2.16579183237157   11.53203203307449
H         1.38434141421241    1.02003044804784   10.21442329427270
H         3.07635863433069    1.32820346245356   10.69572452653313
C         0.63267445258525    0.07082886275914   12.79032296165633
H         0.59436725315318   -0.75896856378415   13.49391791945628
H        -0.17092244760873   -0.04018158807212   12.06511318496397
H         0.49380062388036    0.99912644027755   13.34534616136815
C         2.23135457815076   -1.25528138980461   11.36865340302990
H         3.17859248146305   -1.22759850717413   10.83417898914292
H         1.42791251522752   -1.45545940164849   10.66392233780503
H         2.27035548421871   -2.05834359910471   12.10135655914474

