70
CSD_code = BASBEE | q = 0 | S = 0 | Stoichiometry = C31H34N4Ni | MND = 4
C         3.11736261145992   11.96368220430657    1.74942210628427
H         2.47599871886031   12.76785035520729    2.07538138714669
C         4.42728962239054   11.98023732525575    2.28728510645698
C         4.66038953154671   13.05008791641807    3.17480237049372
H         3.85405283859450   13.73961806816726    3.37053305568027
C         5.88058550853844   13.21862906794871    3.78055308261144
H         6.06671823816847   14.03387267924762    4.46312242174065
C         6.85968038132920   12.29847613080402    3.47510664072366
H         7.83965855717905   12.38282229120174    3.91845835320388
C         6.61474521391371   11.23579256280927    2.59145368935018
C         7.74326285068976   10.38892095433149    2.39897010722451
H         8.64208565112070   10.66303123017003    2.92850066004772
C         7.76984131156577    9.27490563867621    1.60534819723450
C         8.86152078109413    8.35361617958288    1.35437745468602
C         8.39490116759391    7.40551577726272    0.48781687797489
C         7.02005295658927    7.74172574194481    0.20532063410752
C         5.94262480919678    7.27147905302312   -0.56277629339666
C         5.61425226283203    6.22074291642065   -1.47773496089445
C         4.30115625092992    6.41276198015836   -1.84088513665703
C         3.83712046984707    7.58627017627347   -1.15886093002667
C         2.58869017429632    8.20587634092349   -1.20805683645237
H         1.81577955681552    7.78845918235003   -1.83217900474173
C         2.32660024213796    9.34864149016778   -0.47781441147480
C         1.06132966287104   10.05955815656002   -0.46674675212566
C         1.20941832982313   11.11996038071229    0.36737411727900
C         2.57257571538792   11.06258181342237    0.87245920542927
C        10.20698106233891    8.46686143611139    1.98692102943409
H        10.52164882879744    9.51353660345616    1.98245441341865
H        10.93699209149839    7.89466984761147    1.41132544226484
C        10.19054700780415    7.95369710270883    3.42938765164477
H         9.46632880073884    8.50682789385969    4.02250968486145
H        11.17307659522542    8.06534060837889    3.88290083649028
H         9.91538796800176    6.90203960057992    3.45477850070395
C         9.14517971526120    6.22668125005790   -0.03332504994015
H         8.82179782024676    6.00671021859110   -1.04895970441191
H        10.21210329324152    6.45878751934366   -0.06448184064063
C         8.92752912833012    5.00140963997483    0.85790374179612
H         9.34214314749870    5.17665528415238    1.84768216262933
H         9.41320642660578    4.12672012689719    0.43026711600328
H         7.86530838991721    4.79518505297011    0.97064414842284
C         6.50944131629462    5.13691428774102   -1.97027078501361
H         5.94364256235509    4.42513300653968   -2.56620540407515
H         6.97138831795973    4.60266675275275   -1.14346366139222
H         7.29750723133192    5.54927585413864   -2.60116680185142
C         3.47684793383299    5.61881149693837   -2.79948774900828
H         3.80557323169813    4.57729810489571   -2.80430598058050
H         2.43272442003393    5.63359832941329   -2.47976269709946
C         3.58100203372301    6.18989192892630   -4.21581516679373
H         3.24990799988454    7.22582617979103   -4.22943972106327
H         2.96532437658341    5.61683632548664   -4.90600649847088
H         4.61208366264071    6.15780651937010   -4.56028680217048
C        -0.15063032267309    9.63202138904289   -1.22410436350718
H        -0.81811335881734   10.48552475324741   -1.35916491257185
H         0.14064922730969    9.27655185243851   -2.21507165539496
C         0.20096802780283   12.14908469644709    0.75365746944594
H         0.67651238883270   13.13136200120100    0.80512247808216
H        -0.57949744838678   12.19786425248206   -0.00841980646843
C        -0.90026571378479    8.52069701242770   -0.48544177351632
H        -0.25272398362522    7.66071470285462   -0.33178113492326
H        -1.77169568827796    8.20581425117065   -1.05552924301824
H        -1.23245197430991    8.87290504327930    0.48823727383880
C        -0.43920869678532   11.82172764533169    2.10497740386816
H        -0.95956951473997   10.86828781625348    2.05421778614120
H        -1.15515400212012   12.59221918685416    2.38325393344564
H         0.31971368502691   11.75233088447055    2.88070626057268
N         3.21754793348342    9.98494247059728    0.34390978332211
N         6.69059504160316    8.86572867312665    0.89858796093467
N         5.39226144906459   11.05548727270097    1.98553079332152
N         4.84031862643600    8.07349677445604   -0.39972874017668
Ni        4.99527754735250    9.54534273758459    0.72881247953917

