57
CSD_code = BASCIJ | q = 0 | S = 0 | Stoichiometry = C19H31CoN2P4 | MND = 8
Co        2.98029318149477    6.14868474470001    5.19953268773231
P         0.87821655555840    5.48466943277168    5.65198457286894
P         1.42296696534658    7.74066776418613    4.87709199420999
P        -0.15074039702946    7.29081397771977    6.32413892966628
P        -0.34364501884288    6.62489408584686    4.24984727532542
N         2.74926223501624    4.26221456039310    2.93074602323754
N         3.22715520066645    6.24194554952604    2.25033710899396
C         3.00715209645665    5.51477573008511    3.36812798194404
C         2.79615736819894    4.21365236910118    1.56509779002853
H         2.61594221190794    3.31874421399193    1.00731637664704
C         3.09669412278905    5.45869452985542    1.13716202970060
H         3.22304820967003    5.83321409341274    0.14306257080810
C         2.46194554520305    3.11196319749439    3.76157400663201
H         2.56174836447799    3.45437566037260    4.79698683556219
C         1.03200547300997    2.63394838298762    3.52415567866181
H         0.33281833981882    3.45143694017663    3.69250999046830
H         0.79324858125857    1.82783027058159    4.21179802925358
H         0.90511440772363    2.27189048735821    2.50631937228542
C         3.47445005347200    1.99876233255118    3.50063736547749
H         4.48949033475549    2.38107447545820    3.58000327017636
H         3.34381638440455    1.57281009862699    2.50844077587056
H         3.34397895998431    1.20633062897965    4.23224715507536
C         3.55790621568399    7.65053282503272    2.20167302873641
H         3.65450358429033    7.97459746020083    3.24331044226526
C         2.43185274285145    8.43361546566638    1.53203539088432
H         1.49150791097543    8.25078614168608    2.04953642084324
H         2.31815894645845    8.14095761547244    0.49058969099282
H         2.64740698859334    9.49735886147333    1.57228848103843
C         4.88941542077107    7.86130196206619    1.48384849307712
H         5.65769210722632    7.22066696541342    1.91061591018712
H         5.20264539540453    8.89611804160066    1.58976476791392
H         4.80433620093650    7.63680411260021    0.42302289576021
C         5.01856775240442    5.78059740850402    5.59345726783185
C         6.11871518912560    5.21301940654632    4.74809081896679
H         7.04806569554683    5.20099254970346    5.32133228222913
H         6.28238126787042    5.80998159062779    3.85326273162414
H         5.89899965641303    4.19280563627576    4.44075733395669
C         4.80945274940438    7.18229145964343    5.82325251082764
C         5.61927044566248    8.30629515803672    5.25269659037986
H         6.41692812195865    8.57310034996931    5.94994116062582
H         5.00933839745460    9.19375373744686    5.08978407867867
H         6.08005752988181    8.02549775760198    4.30910123743105
C         3.83361296508940    7.29528610704005    6.82895209573147
C         3.38888526981556    8.55507115772613    7.50108007344449
H         3.97604916796717    8.71803117631354    8.40719197157045
H         2.33834099841144    8.49855038550008    7.78827793230264
H         3.51886600686392    9.41589586282618    6.84809274356149
C         3.50132103428842    5.96909314931702    7.29146273434398
C         2.67281095522762    5.68615204028106    8.50398057242491
H         3.26534829372213    5.85756544116879    9.40503785188369
H         2.32673075867676    4.65435340432097    8.51162592666396
H         1.80112114132041    6.34012858628884    8.54676919744013
C         4.27726212572078    5.04082962292721    6.57343169843884
C         4.44117095140809    3.58905414574515    6.90557602646997
H         5.13934120797336    3.48083557762388    7.73887038375756
H         4.83801839385082    3.03009400536389    6.06193603126257
H         3.49489923540923    3.13989130581194    7.20403540582684

