58
CSD_code = BASLOW | q = 0 | S = 0 | Stoichiometry = C19H20CuF12NO5 | MND = 5
Cu        0.15473779156391    0.52533746520036    3.19224136064074
O         1.49542933287670    1.91121985289312    3.14642895684396
O         1.52398129826786   -0.93903996175936    3.28459450575822
O        -1.35742887843959   -0.74861500190190    3.23092156075289
O        -0.72024393926530    1.50166730777449    1.60995525113453
O        -0.75008641280126    1.62723485887137    4.67714698845720
N         2.71619806637121    1.59900332512958    3.17431358780530
C         3.40851264224299    1.44796537510713    1.89403529546598
C         4.58489130066025    0.47400941574947    2.01038398950431
C         5.43798708769006    0.72180017950952    3.24433282022832
C         4.55910572980653    0.59048811146685    4.47805753860139
C         3.38086911010305    1.56916008832495    4.47753919277652
C         2.41482411487957    0.92246845765319    0.85521577147954
C         3.87365224795632    2.84438621280341    1.44273948604090
C         3.83669408761063    3.00248082492834    4.80592984105931
C         2.36528960474402    1.14186622703745    5.53986595744387
C         1.21287008035334   -2.15305258968226    3.35516564196840
C        -0.04204794824784   -2.73890762128260    3.37259615563632
C        -1.21565716890440   -1.97540586379701    3.30693908545458
C         2.43716320461323   -3.08994067632697    3.43530309725824
C        -2.51275547584848   -2.82092873340851    3.33500795772971
C        -1.50403385577694    2.43395365439090    1.86152031447611
C        -1.93834026107263    2.96730179203125    3.07468259877228
C        -1.52746933359810    2.53583264897986    4.33571348300991
C        -2.08113736553410    3.16792603241473    0.62442954729442
C        -2.12575320401009    3.36904457046529    5.49739637543536
F         3.24034400440608   -2.90943120350219    2.37700152675565
F         2.13682695619937   -4.38548267988979    3.48514818240617
F         3.17259117512494   -2.81127831325105    4.52165091691125
F        -3.60853182875685   -2.07727513728939    3.27106210944453
F        -2.54604520090926   -3.68366980429828    2.30890895188213
F        -2.58400845804710   -3.55531698804511    4.45468320622109
F        -1.69391484538048    4.45585179677621    0.60345323959869
F        -3.41971147546111    3.17229976070951    0.61649613614702
F        -1.67628335352757    2.62370945500597   -0.52118642850256
F        -1.73428590703586    4.65357161994858    5.42124255340894
F        -3.46416844686203    3.37698391080930    5.47919679155546
F        -1.74491458916397    2.91912920182037    6.69117951235210
H         4.19155148610156   -0.54215479152756    2.05447589629485
H         5.18846807952672    0.55815005249492    1.10597338629538
H         6.23692120078241   -0.01929872265641    3.28763284470591
H         5.90905391959695    1.70434981299704    3.20300662763145
H         5.14360908728757    0.76052701724497    5.38291885774021
H         4.16630074122080   -0.42586996634606    4.52217614078068
H         1.59634086377653    1.62000652904887    0.70278995427451
H         1.99394269342626   -0.02608089113530    1.17971269356000
H         2.92763657700535    0.76844971210599   -0.08979856347839
H         4.18794714391672    2.79528288195995    0.40386717399812
H         4.70764323201991    3.20849991558276    2.03330111109557
H         3.05097958699130    3.55065958826967    1.51993538176323
H         3.01483440361094    3.69642144932494    4.64908977808886
H         4.68073681775640    3.31262582047602    4.19909597836639
H         4.13224942942818    3.05034808890235    5.85034912079547
H         2.85789118836939    1.07780768223971    6.50575414730263
H         1.95089249569340    0.16652235183077    5.29714654088199
H         1.54396878445018    1.84917777573473    5.60890569155857
H        -0.12617532193794   -3.81073838021354    3.43726232965952
H        -2.63354229584488    3.79156650230305    3.03411184947758

