75
CSD_code = BASLUF | q = 1 | S = 0 | Stoichiometry = C36H32N5ORu(1+) | MND = 6
Ru       -2.19601505089520    6.08317004150099   16.31738250835962
O        -3.61772719510599    6.58885382183681   14.88308623231894
N        -0.81552278955559    5.95833306111084   14.78245311935735
N        -2.44814396661449    4.14174435594407   16.16369162009232
N        -0.92529131722667    5.45629911402991   17.71856622701549
N        -3.63462256114152    6.34845995603866   17.64106440274071
N        -2.15955234042519    8.11586215936139   16.43495349627596
C        -3.33572829622366    7.34187373817179   13.87743646005985
C        -4.36176443511424    8.14851991277486   13.32500506376201
H        -5.33064178528887    8.10408562333073   13.80075002560682
C        -4.13833192506653    8.96051928343588   12.24645014066158
H        -4.93926315319491    9.57533938400502   11.86373281674702
C        -2.88390827808548    8.99615243972026   11.62922542273152
H        -2.72057329270106    9.63201042114523   10.77394111444348
C        -1.87639538354347    8.20420560889907   12.11080639348986
H        -0.90715769584928    8.21096066217181   11.63199218278783
C        -2.05374599321982    7.38300419866625   13.24121290233528
C        -0.96503662720230    6.55580832845340   13.64476481345207
H        -0.18116193383537    6.42006692998556   12.89565795647639
C         0.23760811101547    5.01370500975629   14.90236804625305
C         0.12393328104937    3.77017571979980   14.26628012052902
C         1.07884883085222    2.79545383817525   14.52303256972625
H         0.97384878874697    1.83234234903389   14.04523290427354
C         2.16127583246872    3.03138962285308   15.35453083614427
C         2.30882033817736    4.30373339318004   15.89169571602784
H         3.17987221852886    4.52757826430651   16.49006010327516
C         1.37537619470273    5.30139453641377   15.66846116325044
C        -0.96940231106177    3.47110279638031   13.28214130900326
H        -0.59101021527180    3.61644931648534   12.26955125541930
H        -1.83440675668577    4.11896332698746   13.40970642011984
H        -1.28755860167210    2.43434932139508   13.36778424270383
C         3.16498786751165    1.96226460302251   15.65114076865468
H         4.17481019660899    2.32775272991022   15.47715957767253
H         2.99862430726826    1.08661854126238   15.03017588149461
H         3.09944432734153    1.66282639079541   16.69694662315394
C         1.63601412210126    6.68941951484940   16.17168769192757
H         2.07117281404594    7.28834755186577   15.37021832040533
H         2.34179808361391    6.67312523313537   16.99809339779279
H         0.71760869185620    7.17151523805249   16.49669215061099
C        -3.40563376679015    3.56308916568804   15.44211956492464
H        -4.09666406901797    4.23798214646371   14.94982864539209
C        -3.51857661151013    2.19189336261324   15.31833997146457
H        -4.31172520871737    1.76583404438189   14.72614128543474
C        -2.58443720891891    1.38189971203886   15.95588948622274
H        -2.63035637653780    0.30881872756158   15.85982367431407
C        -1.60399977005351    1.97573040325787   16.72773521075490
H        -0.87682412067398    1.37178069519420   17.24405611275344
C        -1.56670046063177    3.36571850355690   16.83376172133299
C        -0.69007184780089    4.12000938214749   17.72096845552289
C         0.25236200586745    3.54861325694263   18.57397764889440
H         0.44521852284475    2.48982739191434   18.53161725758575
C         0.93340113329262    4.34737347729674   19.47133711434563
H         1.67284281542868    3.92616571677662   20.13301648855091
C         0.62640275895606    5.70317134912080   19.51714670724989
H         1.10518943135626    6.35763017908408   20.22693490473404
C        -0.29744124495024    6.20863830055745   18.62550329321470
H        -0.54687896296842    7.26386060576478   18.62668903415732
C        -4.24306390934261    5.41635691550874   18.37734620257132
H        -3.79592604693851    4.42862953518722   18.37781625987574
C        -5.38186275971522    5.66374245968937   19.11506812830845
H        -5.83578757359881    4.87325040988769   19.68988970679214
C        -5.92956566291165    6.94270331846648   19.09458645654296
H        -6.82459017781453    7.16822542010507   19.65161030715179
C        -5.29549663747306    7.91962672773415   18.35395657060144
H        -5.68680435558185    8.92314476607933   18.33733369765598
C        -4.14274040310610    7.60139317987667   17.63329204240938
C        -3.35746881876176    8.57198907637879   16.87704511742614
C        -3.77937145917894    9.87746227772232   16.62117479315754
H        -4.75040628170413   10.20636762638885   16.95143197358068
C        -2.96191980567902   10.73652526121881   15.91392731054050
H        -3.28131677554713   11.74192760485028   15.69176963175609
C        -1.72185196885341   10.27297716192924   15.49583352155613
H        -1.04468551130473   10.90504275631727   14.94592933016473
C        -1.37273177312433    8.96519751041293   15.77410575269389
H        -0.41859919944949    8.58282523365138   15.43826462321223

