97
CSD_code = BASNIV | q = 0 | S = 0 | Stoichiometry = C40H50N4P2Ru | MND = 6
Ru        9.84694363190847    1.46917971484191    3.30653413559624
H        10.61569322184959    1.37462744422640    1.96324704531255
H         9.99492608444114    3.01811485552348    3.13776874614850
P        11.82378439420545    1.47237209617907    4.35881360301864
P         9.00009675715567    2.19627737524812    5.27880536109180
N         6.97069851218646    0.71025769366496    2.42087068920378
N         7.76860254852482    2.21222812510135    1.11303248172152
N         9.97445350417679   -1.52578623598753    4.23661399270130
N         9.72591207829402   -1.40798218446536    2.11352852693634
C         8.07090756800442    1.49537494935297    2.23145560161100
C         6.01707545118919    0.93118902133032    1.44456863432134
C         6.52098935056414    1.88389653281355    0.62114607915591
C         6.77600897685746   -0.24497372158271    3.47279210132590
H         6.89940033551602   -1.26796136273560    3.10316238385881
H         5.77454705179171   -0.14497253884729    3.89396470769493
H         7.51265654560192   -0.05951210084625    4.25499091651421
C         4.72179563691476    0.20176389022990    1.41116334203808
H         4.17706340854342    0.45329357346887    0.50546662284261
H         4.10108647108501    0.46714021799373    2.26815154604358
H         4.88228234260527   -0.87626004921348    1.43113804814991
C         5.94774928145991    2.52940153067284   -0.58855647332689
H         4.96131637013782    2.12484904510432   -0.79693542834467
H         6.58349373145334    2.35994634070946   -1.45779404956708
H         5.85572206306659    3.60582779846424   -0.44401796506621
C         8.60482304609684    3.19251464953030    0.47840357055196
H         9.53770949248037    3.24602819221018    1.03961747489261
H         8.11944797608367    4.17096052386893    0.48132160026406
H         8.81464661601744    2.90289255575799   -0.55331997204911
C         9.78395625721944   -0.62636629383656    3.23105307510052
C        10.05702385379047   -2.81888808497061    3.76296579082311
C         9.89750929107137   -2.74533282450285    2.41927144227222
C        10.00282040148510   -1.23056388635897    5.63526543834395
H        10.05016683259344   -0.14672252327350    5.74618775808638
H        10.87600697395515   -1.68074104962194    6.10901781990043
H         9.09790156359844   -1.59962463857776    6.12958270235413
C        10.30574323556816   -3.97776848839455    4.65866139614672
H        10.28680756284202   -4.90229423949532    4.08836124504738
H         9.55015744522594   -4.03591715067724    5.44248755631128
H        11.28348706449534   -3.88663422449994    5.13375786648122
C         9.90082903926765   -3.81448338369655    1.38618655898593
H         9.92865694920537   -4.78998325615681    1.86383292384113
H        10.77407425618356   -3.72655458335501    0.73860690020161
H         9.00934465154216   -3.75946533025796    0.76175316673354
C         9.48983251956140   -0.98019918283756    0.76275503483133
H         9.63557146152514    0.09874969875937    0.70907333106655
H         8.46936538151293   -1.22470816923205    0.45069644278346
H        10.19225206642222   -1.46995623362213    0.08709708521468
C        12.78536907063330   -0.08744003480207    4.50987948868316
C        13.28544537039500   -0.67315230576895    5.66616000039129
H        13.18900869040833   -0.18003904160837    6.62372392840158
C        13.92076945794951   -1.90324481297849    5.60734540412154
H        14.30305103598459   -2.35134563292215    6.51481541779199
C        14.06495576249857   -2.56155205628874    4.39883452899108
H        14.55261770544820   -3.52548128438813    4.36173400771697
C        13.58601371352547   -1.97619029885472    3.23670532732574
H        13.70428311447133   -2.48241369025908    2.28889884483803
C        12.95519114556149   -0.75011319986312    3.29586602437278
H        12.56377427692440   -0.27943774319880    2.40115391888003
C        13.24622009790274    2.51116664104135    3.82845600070065
C        14.48068611679150    2.41940959466860    4.46691857774420
H        14.61895680463065    1.71588313753033    5.27766600741076
C        15.53420376076672    3.21665424069071    4.06211735344264
H        16.49013877288094    3.14064552858994    4.56191217006475
C        15.36891206798721    4.11039391246019    3.01546667358104
H        16.19567507038139    4.73218213276792    2.70204512132430
C        14.14652294614905    4.20000661479811    2.37208519933794
H        14.01698668703089    4.89357767351104    1.55316654744348
C        13.09061593570030    3.40154531805170    2.77611754702309
H        12.12767393729531    3.45117488450711    2.28673426156300
C        11.67829729118675    2.06204273848768    6.12632974997527
H        11.57256277670951    1.19255810679609    6.78240236052722
H        12.57303208278302    2.61875466830589    6.42456414867997
C        10.43851773741478    2.93907313899637    6.21503334693158
H        10.62934117051797    3.88655012954025    5.69507580928931
H        10.16901095734493    3.15803087663129    7.25386350700140
C         8.08546445201437    1.36418467757110    6.66335494783262
C         6.70993597763706    1.21519294523203    6.49041501217373
H         6.24448878718954    1.66661668317281    5.62229748406331
C         5.94161526268470    0.54218129279138    7.41856467297573
H         4.87407153442534    0.44939201746023    7.27305385431355
C         6.53791367281513   -0.00722863721479    8.54315363392893
H         5.94085080163961   -0.53259467325666    9.27450595524269
C         7.90296793794611    0.12898443504456    8.72656014173438
H         8.37375577128380   -0.28894618735659    9.60592418029233
C         8.67114442983236    0.80257126272147    7.79308196833277
H         9.73380277731171    0.90161380772549    7.96556009873006
C         7.92210457064312    3.68974252451007    5.32618440978896
C         7.41978647101674    4.22413530378387    4.14898665910622
H         7.68672676392724    3.75075968323357    3.21492900692812
C         6.60902688725471    5.34556376430514    4.17078003596782
H         6.22075457897559    5.75010307188028    3.24607292067190
C         6.29561095438634    5.95017761209962    5.37559021320008
H         5.66521815039992    6.82788610667458    5.39685245601251
C         6.79276349376732    5.42416417314850    6.55736080050534
H         6.54922451601441    5.89227988286408    7.50109714605370
C         7.59520352943999    4.29943261709402    6.53527829565573
H         7.95869586685653    3.88531431205286    7.46607797575486

