100
CSD_code = BATDOS | q = 0 | S = 0 | Stoichiometry = C40H50N3O4Si2Y | MND = 5
Y         6.44714793388343   12.88750146253403   14.93391449332423
Si        6.42219529466257   16.03913688371950   13.69526836041285
Si        6.57004355139217   15.72959894228741   16.71301510541963
O         0.38713138477752   12.45118729620460   17.43591053620774
O        12.28546147987945   12.25277151606895   12.09714851084767
O         5.64647204781554   11.86967746066601   16.57681434405280
O         7.22051616886487   11.73688560024429   13.33011167759682
N         6.50282943765250   15.06731446950054   15.11683142903486
N         8.36139725679738   12.22253540310112   16.03911265224475
N         4.54538767094075   12.33368477109172   13.74025075373402
C         5.52799695146164   11.65834001047975   11.67576329729076
H         5.33175728888553   11.43855553129490   10.63763020487263
C         9.43407747608445   12.27360876644602   15.13533005863896
C         2.59369480141982   11.30792462617841   14.80749672099657
H         2.76858160375454   10.39385213133906   14.25870459954390
C         6.84450124799007   11.59565737953722   12.11463257638446
C         8.51233604260827   11.84000272942583   17.28368794744656
C         4.41518370207121   11.94200318248497   12.49362978863761
C         6.67937306509557   14.91264579869014   12.16720778173436
H         7.57335362791111   14.29882680365353   12.25714660495155
H         6.78451579687601   15.50617412782608   11.26368283041831
H         5.82624945270976   14.25525887718992   12.02112426014877
C         7.92161759964674   11.32819546223558   11.12228187754669
C         9.57887594998755   13.40051457330288   14.32128115760217
H         8.93614532621203   14.26112592552492   14.49320223033678
C         3.20751162881657   13.56776072348204   15.33867546106027
H         3.84119180212138   14.43372383176084   15.17196994596162
C        11.34956447758684   12.33928941074258   13.08607134577423
C        10.29340287195581   11.19062161290937   14.92416604557287
H        10.18168482954682   10.29654429934294   15.51957384690789
C         5.02256387537190   11.58212305177028   18.82275376145949
C         6.07375907133773   11.71408223353801   17.77703587124979
C         5.18747339198609   12.07503224784840   20.11445635932492
H         6.11612284518092   12.54691421060483   20.39795217850885
C         3.06460937921163   11.83110559552762   11.82737919840878
H         2.78769715932522   10.78460696578628   11.70939958204065
H         3.11213526101034   12.27387847911677   10.83456177043354
H         2.29435705477661   12.33354958368471   12.40734484127801
C         7.41012320825058   11.64927522477634   18.14591542999829
H         7.63486623863812   11.41839341550849   19.17593396058531
C        11.23537188755718   11.22669694432410   13.91908620539492
H        11.88685513401712   10.38521269918406   13.74247099308157
C         2.19541308606309   13.62210283349552   16.28088306135642
H         2.05478789348865   14.53318909392349   16.83985704426951
C         8.18395762270017   15.21487578859156   17.62044232726318
H         8.07340469685351   14.24157456739656   18.08693000761711
H         8.42840925971027   15.92675293552562   18.40304769880242
H         9.03332053825578   15.16671089160631   16.94555308560287
C         9.00572600830378   10.54138792495935   11.50133729931748
H         9.00961923569893   10.11088042060724   12.49115334407758
C        10.51911129150921   13.43392237507714   13.30733764650891
H        10.58829141022015   14.31704521453654   12.69158073509169
C         1.38540719579681   12.51439962622243   16.50707716087314
C         2.76619024021277   10.93949680762761   19.37846391807462
H         1.82176768951879   10.50495978288018   19.08653917111366
C         1.58893360746716   11.36139006081063   15.74846264927747
H         0.95363323297976   10.50815783594582   15.92849207988650
C         3.43252155609005   12.40741678678812   14.59737366001980
C         4.15020715139501   11.99768602545562   21.02614747582975
H         4.28291252852384   12.39041737291379   22.02405277507912
C         3.79856130947083   11.02120852426119   18.46419605842977
H         3.67455239186458   10.65722765678162   17.45531095791741
C         7.91213227860948   11.90607427575163    9.85602326515597
H         7.09260827033755   12.54545328992669    9.56375330656189
C        10.05208343919810   10.31979490012150   10.62643531706708
H        10.88759970782325    9.70653096605774   10.92842235148990
C         4.71666090456262   16.88722350785759   13.44595618113646
H         3.93779694511615   16.16164633360525   13.22852437832556
H         4.74514776947980   17.59387279353281   12.62262159118299
H         4.41808040780002   17.43161050029588   14.33539563767623
C        10.03576457677981   10.89749811262571    9.36746825650023
H        10.85763596632044   10.73419041523311    8.68566217747590
C         2.93992936041360   11.42940688304254   20.66283561253041
H         2.13211791348636   11.37499214987838   21.37820012487941
C         8.96680570357570   11.69262690834235    8.98672427674840
H         8.95830346088365   12.15278387069879    8.00887943021132
C         9.87311712711805   11.65328021254158   17.91110624594727
H        10.09508757877488   10.59267925084215   18.02055674341905
H         9.88020272853438   12.09644941719993   18.90468111989845
H        10.65196860191867   12.11525138606390   17.30969882172225
C         6.52220749697383   17.63789660430585   16.81615831550312
H         7.46002163043239   18.07249837494459   16.49234419727961
H         6.34493190963245   17.96207049763749   17.83646053042111
H         5.73620888801691   18.05305407406751   16.19703239453752
C         7.76937307021168   17.39983327825142   13.58437595177566
H         7.44562246053960   18.30653618412568   14.08099040678478
H         7.99381679537309   17.65480998313543   12.55333669944544
H         8.69363497863027   17.08210881985021   14.05618835102772
C         5.09901588522639   15.13257371540641   17.79395284337401
H         4.20997113012809   15.72974070754716   17.61699898404688
H         5.33768778247081   15.21143350902905   18.85028604509228
H         4.84861490211472   14.09591513110070   17.59009412535675
C        12.33310831897366   13.27707627336510   11.13506185100024
H        11.36834737281872   13.39454296450739   10.63086278787550
H        13.08354746634372   12.96538118761998   10.41010364859415
H        12.63517543227705   14.23283318620967   11.57597960431554
C         0.24686965644764   13.52451327227974   18.33379368546847
H         1.17546559735822   13.70662854600320   18.88450053767242
H        -0.53458790630583   13.22557969056605   19.03098794205743
H        -0.06133583067095   14.44221603989619   17.82198150703697

