107
CSD_code = BATMOZ | q = 0 | S = 0 | Stoichiometry = C52H48Br2P4Ru | MND = 6
C        16.73800617560369   12.88576914794642    6.45826179485089
C        18.02682479150713   13.32711103552924    6.16369210708866
H        18.19997018270286   14.36479694328949    5.91501739011052
C        19.09042300258656   12.44449053466964    6.18569559955572
H        20.08387709547240   12.80035534080955    5.95334829992859
C        18.88369577576353   11.11175535676935    6.50126605235967
H        19.71542645547074   10.42262531024661    6.51323897568538
C        17.60676675662226   10.66793096977535    6.79912672395305
H        17.43534631713695    9.63001523068183    7.04283024222192
C        16.53767096450871   11.54535167486341    6.77887032515209
H        15.54795357595319   11.17097458117603    6.98759536269744
C        16.15775654523035   15.52301898689720    7.07698519948051
C        16.19860917459913   15.82003029947282    8.43517777142448
H        15.70372113655765   15.19179852142621    9.16086736359223
C        16.88378960494492   16.93614542980027    8.88176908341122
H        16.90289792024702   17.15905878391111    9.93917016072478
C        17.54118276702617   17.76373595037145    7.98740450543295
H        18.06941799634777   18.63512467100307    8.34522371461110
C        17.51621505625119   17.46947453097970    6.63533560913830
H        18.02233578207706   18.10532851935596    5.92445007953914
C        16.82848484822828   16.35837198198823    6.18721349321332
H        16.79909717126075   16.14288630346499    5.12885509855706
C        14.26734116911708   13.47575149691312    7.75217264024146
H        13.84891934021486   12.49744526995033    7.48244731955367
H        14.84579597188238   13.35979601608161    8.67345628021731
C        13.13978382701044   14.49349268073609    7.86783127217115
H        13.55247772211603   15.50209581490948    7.98367414247310
H        12.47593965356122   14.27801711255971    8.71002608610159
C        10.96390439685653   13.14500851095484    6.75695881155256
C        10.13070127331767   13.43706196620074    7.83866607216656
H        10.21227591938399   14.39240736236548    8.34117917779178
C         9.18522394513659   12.52469666877296    8.25863423233127
H         8.54424741953373   12.76383576387435    9.09511774087959
C         9.05479511866813   11.30640092125801    7.60762302047412
H         8.31334090621467   10.59426511413055    7.93927702387529
C         9.87408283522266   11.01220308398750    6.53482738431844
H         9.78265964975071   10.06875834447967    6.01796330257278
C        10.82319925260308   11.92742999971635    6.10856350869033
H        11.45270402750577   11.67486294697323    5.27201449271467
C        11.13052635329660   15.87962916083193    6.34680819249950
C         9.83634344987399   15.78438873549873    5.83933931265364
H         9.47817791368313   14.83129312457191    5.47473201357210
C         9.00651272634020   16.88779604986953    5.81521696216922
H         8.00519157282240   16.79726808363441    5.41940638990696
C         9.46227362402344   18.10649333363832    6.29076693693712
H         8.81609930124223   18.97176359487383    6.26911016206001
C        10.74879863040153   18.21212767224668    6.78997564648551
H        11.11356005028865   19.16085269106630    7.15434053571905
C        11.58262526323370   17.10833397714918    6.81712769326369
H        12.59045968699849   17.22303296209331    7.18678094601597
C        11.04102838390524   15.45937509621311    2.35095325320189
C        10.21917015084856   15.19679528761848    1.25326281375027
H        10.27853604443383   14.24004369684813    0.75047488908860
C         9.31227682658246   16.14049414971634    0.81794510010075
H         8.68002454004429   15.92443726131353   -0.03128279293300
C         9.20916132681716   17.36087114766192    1.46989331594033
H         8.49788707831191   18.09765049021929    1.12618273909481
C        10.01661590269811   17.62569001445340    2.55908631524927
H         9.94551243558173   18.57024583404763    3.07711398161375
C        10.92761721531132   16.67936368263934    3.00017157807856
H        11.54925632911506   16.90918545407735    3.84910952748671
C        11.10578867502779   12.72210751644791    2.76404131288432
C         9.80949819601401   12.86307222702487    3.25509827966446
H         9.48184480219204   13.82769616767160    3.61811285499618
C         8.93976277902488   11.79059328209429    3.26496694703079
H         7.93743950456810   11.91635523673020    3.64837441882167
C         9.35680727701915   10.55755719191591    2.79083759737074
H         8.67927573656441    9.71639339339137    2.80102413658774
C        10.64497769773051   10.40651704598372    2.30790671804887
H        10.97944720186014    9.44625090289306    1.94462184243531
C        11.51895639464916   11.47909763284041    2.29565395258476
H        12.52672681616048   11.32861084932373    1.93889656725254
C        13.18843607491254   14.03557098051811    1.27702580436973
H        13.56923681240912   13.01353960256269    1.17009966117360
H        12.54702494787855   14.27139048292963    0.42304143511695
C        14.34731082100419   15.01516515221652    1.41109441983326
H        13.95728876462118   16.00716367368188    1.67324379050303
H        14.94477247325736   15.11062512547900    0.49965648868622
C        16.15740569602901   12.90717215663345    2.11797635627200
C        16.78841668244001   12.05247364440151    3.01847191946947
H        16.74732407756068   12.26838662434325    4.07640982855780
C        17.45129972255647   10.92207691088123    2.58126206542453
H        17.92819417871848   10.27256805673631    3.30004221575342
C        17.48974272630531   10.62684733202024    1.22963581622340
H        17.99906162775716    9.74089169597108    0.88025602537488
C        16.86977308060371   11.47205351543352    0.32504293871659
H        16.89827694599274   11.24775494073384   -0.73186391661492
C        16.21047948258072   12.60797186000650    0.76068357203655
H        15.74508825423131   13.24956957126434    0.02718173862123
C        16.81450671493023   15.52228486111617    2.74786501573805
C        18.08121457753420   15.03896628689121    3.07117917331701
H        18.21386243560078   13.99730848920474    3.32775811631077
C        19.17450754905374   15.88476277948023    3.06798471749917
H        20.15021116560872   15.49644456190790    3.32259795152473
C        19.01997601843535   17.22214140500470    2.74256183963095
H        19.87481853941079   17.88246538328307    2.74495611581267
C        17.76544687576227   17.70757479411990    2.41602494503660
H        17.63470099093262   18.74947032927037    2.16420354815745
C        16.66680874186816   16.86718042060239    2.41769249692194
H        15.69508409206958   17.27397122197675    2.18647341791654
P        15.33333376845662   14.05288068409439    6.36106660063531
P        12.20494837511108   14.40592573572367    6.26944262532076
P        12.22999874778715   14.15708971914147    2.85888519926687
P        15.36926763206324   14.40365929886653    2.82029730939979
Ru       13.81963576291329   14.25375467338307    4.57830130555872
Br       13.95241263858307   11.72008963790622    4.55753706727660
Br       14.03389159417624   16.78264626732866    4.59113479462662

