46
CSD_code = BATMOB | q = 1 | S = 0 | Stoichiometry = C18H21N4O2Ru(1+) | MND = 9
Ru        1.47431883888102    6.34927499852042    2.28711728968569
O         1.13885391975414    6.15327348179312    0.21788934844672
O         1.06860110693371    4.88722422759219   -1.61383038206986
N         0.35763334104358    4.64411965674940    2.38570647007027
N         0.54676120994239    3.66061383241759    1.49529728872303
N         3.00499071742532    5.05567271318463    1.94259116570996
N         2.84347918406364    4.01621928848319    1.11244663031028
C         1.84336853637063    8.60192528949099    1.97605198704622
C         2.75246857238482    8.13197366054120    2.93614027453670
C         2.30659645207012    7.47028013093528    4.11122029750134
C         0.93249068424248    7.28642566127876    4.35911359215290
C         0.01041284551026    7.74112349090236    3.37119073255202
C         0.45514919713021    8.38112404900984    2.21058079199394
C         0.46197398160002    6.76344230290418    5.68138839980296
C         2.30275952418625    9.37660544599962    0.76769423196229
C         3.42897078892598    8.65271815917769    0.02672530467962
C         2.73703496992729   10.78098961915338    1.20375769943942
C        -0.68005396635900    4.29074066082199    3.13441032826448
C        -1.17378592863694    3.05737326258050    2.70993477722777
C        -0.36736802880593    2.68636618351028    1.65751003331133
C         4.28008040004821    5.05705602928884    2.31523899030083
C         4.95365581425645    4.00103354275679    1.70224562573383
C         4.00478112916326    3.35918353414166    0.93790267854721
C         1.56770564718446    3.78635030158293    0.49276426493711
C         1.21056034511950    5.08845088228080   -0.44250452292275
H         3.80816297982573    8.35068983069405    2.82414491261050
H         3.02212919106529    7.20744238644077    4.88450371335157
H        -1.05465018823405    7.67152997613875    3.56766869774965
H        -0.26802222153488    8.77692837849113    1.50511268053269
H        -0.59504984927992    6.51101030994952    5.66307803257614
H         0.60526053749013    7.53608040010900    6.43847314438939
H         1.03297874784938    5.88975762116403    5.99033984232982
H         1.45571942222944    9.47131134834347    0.08110157944332
H         4.34657131998027    8.63195005128328    0.60975105467674
H         3.63669191197909    9.16513172248147   -0.90807210948780
H         3.12820803079571    7.63132690609259   -0.20549700609629
H         3.59052522807262   10.73314487958674    1.87617289142885
H         1.92513686377406   11.29784900305401    1.71039087163650
H         3.02062814099437   11.36102874723152    0.33046916613766
H        -1.03023763349286    4.90550316740010    3.93981965576190
H        -2.00416756644215    2.51803701696472    3.11418917830588
H        -0.38892895205841    1.81757517888822    1.03206412289826
H         4.66778168208076    5.78670827464615    2.99964642533405
H         5.98754622253337    3.74632116245660    1.80300329330693
H         4.08326503215853    2.50344170206630    0.29913854613413
H         1.60201181784684    2.89197153142212   -0.13358199096185

