40
CSD_code = BATNAO | q = 1 | S = 0 | Stoichiometry = C14H16N7O2Ru(1+) | MND = 6
Ru        7.97335918607135    6.17364214645475    3.99236663929384
O         9.05528848248289    7.98883292871659    4.14391534526765
O        10.86148218553717    9.13194435796020    3.51573736446762
N         8.36708467656396    6.27106625985502    2.00633617340531
N         9.59875269765639    6.62747121195910    1.63214094305599
N         9.77250768329665    5.25520253857988    4.16544864831053
N        10.79778332517202    5.75804253791796    3.47251390251892
N         7.00526782824167    4.52474362811544    3.84935650906608
N         6.38733211414919    7.26097706938616    3.76653297827405
N         7.78503373487747    6.25051589705600    5.91786695415363
C         9.67397966509218    6.75801864640075    0.29467759700681
C         8.42855758559178    6.46112520150249   -0.21224895612465
C         7.64329619091497    6.16000064874856    0.90130001075826
C        10.25450097752868    4.27036899569815    4.91046616935849
C        11.62759232956413    4.14231268973652    4.69705977983415
C        11.94051395295636    5.11310964002890    3.77200734964969
C        10.60795966485454    6.89697245745016    2.61810618040393
C        10.12919361721087    8.18004729400489    3.53778600980558
C         4.77144474119406    9.24166550921154    3.44023497569077
C         5.68322835809835    8.15896732522171    3.62178106889813
C         6.43460390947881    3.52715811980761    3.75478161641401
C         5.72571858294255    2.29138736073930    3.63974611058765
C         7.88808373114524    6.56615669730912    7.01919263289407
C         7.98370230475825    6.92630705962072    8.39677335638439
H        10.57927235888287    7.04895652534773   -0.19746007303111
H         8.12885945808677    6.46269754953517   -1.23888919270257
H         6.61065807701289    5.86777726316008    0.94674243912125
H         9.60949452101976    3.69927149218036    5.55200303070143
H        12.29495016079986    3.44235933818331    5.15369288568084
H        12.87654108186894    5.37918150634256    3.32539039143289
H        11.54898267655949    7.15665534720806    2.12760972198035
H         5.12964533349203    9.89187318740997    2.64201510416269
H         4.70089446699189    9.81932964674809    4.36184975952664
H         3.78444524800920    8.86018538429918    3.17863770512211
H         6.16544583664537    1.68290512109122    2.84949085978105
H         4.68010146990713    2.48524852365465    3.40053545867686
H         5.77855427812763    1.74489439249655    4.58137435858644
H         8.49581857850768    6.14122837352747    8.95308734895671
H         6.98683907066824    7.06995092474986    8.81352712801069
H         8.54722985806002    7.85504920255970    8.48871371461470

