111
CSD_code = BATPIY | q = 0 | S = 0 | Stoichiometry = C58H40CdN10O2 | MND = 6
Cd        1.34090623878187    4.15982892344969    4.75491628021408
N         2.83381749982009    2.25079648379069    0.20211182310406
C         1.88608591850084    3.30358427944574    0.10185892516045
O         1.24525275517869    3.53169303159426   -0.90453119967036
C         1.83934706802008    3.95550407934807    1.39490119278327
C         2.74496865956737    3.28550583296496    2.24020834332472
N         3.08066662129867    3.49378257310843    3.50271769354866
C         4.00609581722864    2.62679627956420    4.01834253113586
C         4.44062881134338    2.79298651245699    5.34230344243231
H         4.05730595782795    3.64238103717344    5.89694510928205
C         5.31819335381636    1.90262469492546    5.90812912789851
H         5.62825568396214    2.02525601010668    6.93546279089522
C         5.80252223105563    0.82058637239238    5.16605163816774
H         6.47586691946125    0.11670883934928    5.63137302941124
C         5.42574688470126    0.65356712379387    3.85760689846069
H         5.79736257645591   -0.16419698170248    3.26017796882366
C         4.53252895944093    1.55064097925749    3.25400660891653
N         4.18270943686605    1.35116422483263    1.95174774526350
C         3.33452796954168    2.20572854764289    1.46982984494371
C         3.14182070945263    1.34886295458766   -0.83300248051159
C         3.47778583058292    0.03162041695814   -0.53515404435416
H         3.51157278904240   -0.28698587222798    0.49287844874507
C         3.77566985415056   -0.84958321553181   -1.55735553206657
H         4.03618643086911   -1.87063426047371   -1.31944217716138
C         3.73696433401869   -0.43424051431912   -2.87794545902057
H         3.96724274425832   -1.12786599923063   -3.67326902705654
C         3.40384464801557    0.87665236841774   -3.17172127512401
H         3.37567192141500    1.21084047307078   -4.19854171051555
C         3.11216926046521    1.77138270170248   -2.15824987646150
H         2.84940016634664    2.78955445094549   -2.39234845372029
C         0.91041892843976    4.95950724471642    1.74273930218433
C         0.03124642786644    5.46920860071179    0.65350734715775
C         0.48199590063497    6.45870017247378   -0.21116100710657
H         1.48509839795379    6.84446400552107   -0.09979206376193
C        -0.34441133288144    6.93619361142062   -1.21165868965202
H         0.01446490926172    7.70110939812516   -1.88475055690900
C        -1.62533270475495    6.43114543642399   -1.35649204628612
H        -2.26722458271379    6.80051244275292   -2.14276589089110
C        -2.07842386221118    5.44469969410870   -0.49757058356442
H        -3.07441522882984    5.04159466002635   -0.61251984674069
C        -1.25642530597040    4.96770269490532    0.50696061724002
H        -1.60692376951614    4.19084193493653    1.17296758732362
N         0.82372019656280    5.39458283570657    2.96722033634152
C        -0.20688475616967    6.35671726682182    3.30446232299287
H        -0.56609021315831    6.92138432256150    2.43476522946558
H         0.21864671184016    7.05517395539260    4.03726087021618
C        -1.35393679933088    5.61900802064558    3.95057072048600
C        -2.67629439447194    5.80738052289514    3.56287777255598
H        -2.91873394338673    6.51829357176160    2.78774938161090
C        -3.66524303507868    5.05882587397997    4.17900619450627
H        -4.70006096365594    5.18074970964807    3.89492420717775
C        -3.30331063187643    4.14624014652649    5.15883134386875
H        -4.04444277501532    3.54208383488983    5.65745642293417
C        -1.96060063592566    4.02158707671782    5.47835095956677
H        -1.61745860218680    3.32231040549101    6.23060414707291
N        -1.01528259156288    4.74025861253137    4.89086252904778
N         2.92046514338378   -0.30383605751944    6.79948654835470
C         2.84649809571348    0.76296575599909    7.73380812358776
O         3.38941643841601    0.73810288525335    8.82015773750368
C         2.07086187353059    1.81707237695065    7.11211241290146
C         1.70311271081854    1.37134154762330    5.82772055564449
N         0.98991242696504    1.94626256322069    4.87331476044669
C         0.83602651535959    1.21257917769387    3.72788174096902
C         0.06957452167328    1.73499245400524    2.67481780757802
H        -0.41727116786889    2.69145206347076    2.83039953875256
C        -0.05007452602158    1.05254228220518    1.49033638899420
H        -0.62221256961214    1.47406250162428    0.67696691998451
C         0.58267728585715   -0.18312095022636    1.32058938599068
H         0.49658707782696   -0.69830291369853    0.37584783358475
C         1.30704634309033   -0.73725313222353    2.34533054487675
H         1.79138429830393   -1.69586615716095    2.24413852940821
C         1.44271306098148   -0.06239888649114    3.56723568648526
N         2.17006196982516   -0.64614209917486    4.56131010798982
C         2.27209437329585    0.04752779462409    5.65232207721260
C         3.62431484609009   -1.50426863083518    7.00774056371326
C         3.71222755834113   -2.04888437361871    8.28498345595661
H         3.24445408198165   -1.54840206684822    9.11638551804392
C         4.41523177658450   -3.22302873607626    8.48475367274178
H         4.48206114991966   -3.63838229053161    9.47966549571960
C         5.02300336099216   -3.86813308388278    7.42165986566828
H         5.56769166394533   -4.78683577358059    7.58285402753575
C         4.92567222325174   -3.32906713031044    6.14969664233905
H         5.39595189562091   -3.82704751623776    5.31431128142243
C         4.23385910424055   -2.15162046212570    5.93717354552358
H         4.15234471186307   -1.73247388296885    4.94865637579599
C         1.89568791848737    3.10344348008048    7.66580689544158
C         2.42423962866407    3.32127813958156    9.04144090024556
C         1.67452508115876    2.95232066924768   10.15127109007879
H         0.70951152483635    2.48750236481416   10.00944579959274
C         2.16636668176682    3.16932945958446   11.42521371217518
H         1.58126656170856    2.87402311939423   12.28392645284822
C         3.66838150079238    3.91318248752962    9.22273400728288
H         4.25817174399870    4.19339481143410    8.36042704022563
C         3.40807116597301    3.75582748081713   11.60130741166691
H         3.79374848075910    3.91832265438942   12.59706286523648
C         4.15877071531838    4.12456890889201   10.49831915356999
H         5.13208318512420    4.57482249741134   10.63113356665418
N         1.31601510839250    4.05069965392452    6.98548069702276
C         1.24029751858081    5.38311854061367    7.55150842226926
H         1.32602569127805    5.38869563720880    8.64553842850390
H         0.27078663777652    5.81108138122676    7.26364934538887
C         2.33756777188812    6.22220387680911    6.94369840660816
C         3.18939833500676    7.00849466487238    7.71219527095904
H         3.06768464346297    7.05333872602288    8.78372329018911
C         4.19723730483515    7.71608237917862    7.07851368004560
H         4.87628705156638    8.33105682909085    7.65045358650881
C         4.32401998128047    7.61469489748125    5.70100145433921
H         5.09945947385076    8.14651882971147    5.17301838936192
C         3.43289240612417    6.80402895437377    5.01603088724703
H         3.48605896334484    6.68101831600046    3.94147773076904
N         2.46694528433632    6.12989558206666    5.62244955742638

