141
CSD_code = BATQAP | q = 0 | S = 0 | Stoichiometry = C70H60Cl2N4O2P2Pt | MND = 4
C        -2.18694358331076    9.35921619985927   16.42484203256199
H        -2.67037691524978   10.31934908609458   16.60230803060137
H        -1.99988163450096    8.89610243426405   17.39391927648549
H        -2.86965065997656    8.72478777857738   15.86645595777982
C        -0.90487660291589    9.53845786648929   15.67088194814298
C         0.12118562560325   10.35692370821254   16.17443678503716
C        -0.05369171800858   11.08017067255737   17.47246280838382
H        -0.28648843779650   10.37777525609523   18.27199558473316
H        -0.88000241484480   11.78779761597273   17.40487272696436
H         0.85063897710078   11.62371007966648   17.73301034849563
C         1.29274603068831   10.48958412495494   15.45870888111045
H         2.08857135913758   11.10764277046245   15.85197126243095
C         1.52205130688710    9.83673634230939   14.24320661373609
C         0.49287782102181    9.00228919093362   13.74084079358570
C        -0.69898695862552    8.89003291349841   14.47630912637100
H        -1.45142860300914    8.23776423072713   14.05992534888586
C         3.27473073460269    9.19517953304545   12.63124179423392
H         3.32675330965471    8.18517518630528   13.08208837819987
C         2.43313103814509    9.09395225855339   11.33951996696946
H         2.07489953072210   10.08963332964336   11.07353367569971
H         3.05654187901613    8.71095096215638   10.53281219902308
C         1.26880711572125    8.17059508009558   11.57288224076140
C         0.96336946022125    7.09762618353878   10.67693253532496
C         1.45015456123172    6.93142530291930    9.38109265189851
H         2.17478292343109    7.62843948904521    8.98373584874326
C         0.99142448270220    5.90754518639045    8.58841422976795
H         1.35918622188072    5.79075014423098    7.58033671358541
C         0.03167273187247    5.02220314238335    9.08910261467935
H        -0.32326395909877    4.21762628515503    8.45967847286596
C        -0.47265084469497    5.15765846981292   10.35304435152281
H        -1.20777725266835    4.46913819530765   10.74164951899782
C        -0.02634319305269    6.19737186328964   11.21430103917254
C         4.67430354866292    9.63786048447144   12.29331710431024
C         4.87677241813776   10.87968550047288   11.70751298299024
H         4.02976878486889   11.52880620909521   11.54265739463357
C         6.14592703558611   11.28989845260317   11.34095184905033
H         6.28791073966381   12.25605794422387   10.88015789326694
C         7.23076593341682   10.45962848429877   11.56523307598466
H         8.22057723169422   10.76963546045356   11.26585133128628
C         7.04839491470756    9.23592344386562   12.18309068085193
H         7.89904655709916    8.60150009775338   12.38943738446628
C         5.77392289517394    8.81122920961477   12.54432889880595
C         7.18908121814098    6.51301878717633   13.57373115404240
C         7.93977404608736    6.92747171300040   14.67563515130221
H         7.54650923100880    7.70578019387921   15.32833009240254
C         9.16984788599732    6.35868979510449   14.94128870770859
H         9.73116647045507    6.66574770929127   15.81031241979333
C         9.66392215991847    5.37500836158299   14.09780563992250
H        10.62132139134593    4.92132372794608   14.30582743906887
C         8.92466385328785    4.95992875270991   13.00291453590694
H         9.30635520668130    4.18442517429189   12.35459865743877
C         7.68354096408924    5.51659709156428   12.74242664145989
H         7.09732369861623    5.16220152390486   11.90691633235369
C         4.63213862343112    6.22102164631979   12.24312822886133
C         5.03988347896473    6.21791011044398   10.91126571744545
H         5.85379594587549    6.85962211138429   10.59722044821035
C         4.40292566545226    5.39635216812008   10.00053419311193
H         4.72705491219601    5.38339695628911    8.96998106222484
C         3.35303039553060    4.58798291599890   10.40789634919648
H         2.86656483798611    3.93862917767578    9.69649880789504
C         2.91828701706290    4.62357905836733   11.72165380988452
H         2.08418024204283    4.01459892163036   12.03392847876643
C         3.55252591125179    5.44114753334156   12.63934396524169
H         3.21867237261324    5.46693028579381   13.66764262190857
N         0.52838938843023    8.26589009571403   12.61196535624543
N         2.67695671355124   10.12247680716177   13.56016791550278
H         3.36138478831459   10.61638328835988   14.12354225663550
O        -0.44949216114142    6.36505069414557   12.38468398208235
P         5.52891611753388    7.24468809710861   13.44717516356371
Cl        4.94234830719667    5.07128135917167   15.65480520091483
Cl        4.93699627140012    9.73099071372611   15.65799440395274
Pt        4.93992626440178    7.39077418925533   15.65747579461386
P         4.34950772706447    7.24329778658902   17.86764838563690
C         4.10304412029839    8.80926523973267   18.77109542666682
C         5.20222307303091    9.63569111597376   19.02472520664320
C         6.60246869022042    9.19319838609526   18.68908380975236
H         6.55177203115686    8.18096078388499   18.24325785502409
C         7.44456429381702    9.09951469116547   19.98114293915406
H         7.80381052797730   10.09648945092417   20.24080737601962
H         6.82128121845832    8.72184943901427   20.79039437183397
C         8.60788732846144    8.17397213890673   19.75180473574754
C         8.90839790747424    7.10055219151697   20.64861355312108
C         8.41869375403569    6.93668980865563   21.94372759107880
H         7.69561458554399    7.63631574268127   22.33932219691441
C         8.87294255763242    5.91220020892024   22.73809999102944
H         8.50301790908022    5.79737403558991   23.74561871146463
C         9.83112432202120    5.02359461034659   22.23993492771407
H        10.18220376527247    4.21832993615515   22.87066771800388
C        10.33840114579406    5.15672187863842   20.97698892218247
H        11.07209022844204    4.46559876384650   20.59027235129724
C         9.89672789208072    6.19704384277145   20.11381778927748
O        10.32258941205749    6.36250557687203   18.94425696266017
N         9.35118785112594    8.26819181910499   18.71450718936978
C         9.38777068664456    9.00334222637116   17.58500797067376
C         8.35649464880812    9.83196015318985   17.07676318654189
C         8.58634682069896   10.48107099837117   15.85923892500792
C         9.76092923223326   10.35188233678492   15.14795074682121
C        10.79020898953505    9.54186766059333   15.65882968588742
C        12.07693651796976    9.36916973736387   14.91132631943408
H        12.55464254881056   10.33218678700156   14.73388982505495
H        11.89779397861652    8.90252656880721   13.94246979769418
H        12.76125987675149    8.74087223881212   15.47464930917356
C        10.58311958778698    8.89562271925523   16.85433029539402
H        11.33731123014686    8.24822657072121   17.27514527414437
C         9.93542675501816   11.06936350632277   13.84668560747872
H        10.17292663982453   10.36384863240304   13.05123696839742
H        10.75839482667272   11.78103606637887   13.91217764651209
H         9.02914986401389   11.60737866727763   13.58150260052115
H         7.78845934590706   11.09317801998752   15.46082655137906
N         7.19899198033790   10.11643856607657   17.75543504934685
H         6.51420734515126   10.60649619202886   17.18903571152344
C         4.99862391756211   10.87691926553055   19.61140532716798
H         5.84516262665937   11.52614708373777   19.77813568213258
C         3.72890848192327   11.28637177409891   19.97685611114233
H         3.58610618775664   12.25192559916490   20.43866545890778
C         2.64455413057627   10.45613849283627   19.75020753889652
H         1.65437174205269   10.76553755358268   20.04892241380918
C         2.82796592500565    9.23333695583298   19.13088993399839
H         1.97776543271319    8.59895621696579   18.92251264339768
C         2.68992426183276    6.51041572268796   17.73899239263944
C         1.94115762785551    6.92091110470475   16.63430561641620
H         2.33458211224644    7.69835942047347   15.98062757935626
C         0.71267822026813    6.34938950203965   16.36707533213390
H         0.15315135916162    6.65296294769036   15.49569269778789
C         0.21787591750766    5.36745482957700   17.21213514853463
H        -0.73832003747393    4.91177065404287   17.00296864153445
C         0.95483845237977    4.95678062126666   18.31023054207384
H         0.57254124271793    4.18278402356489   18.95999041819340
C         2.19462101037118    5.51578877271199   18.57200469129523
H         2.77926390646686    5.16457800690106   19.40995986819171
C         5.24436158926254    6.21932374962689   19.07297591817964
C         4.83693699228736    6.21904576047712   20.40494603389183
H         4.02459188771301    6.86307277117002   20.71829944615578
C         5.47216141416026    5.39729860259005   21.31668587401703
H         5.14827544975956    5.38662606594123   22.34733678638296
C         6.52007293101068    4.58592485937834   20.91022746052489
H         7.00523960909124    3.93654351176796   21.62248435495251
C         6.95459608672254    4.61865867313654   19.59634518879912
H         7.78720174470438    4.00729738424247   19.28470773691972
C         6.32201546251151    5.43633934451343   18.67759617978830
H         6.65560949156014    5.45988049977289   17.64918462867766

