63
CSD_code = BAVBEF | q = 0 | S = 0 | Stoichiometry = C16H34B10P2Pt | MND = 6
B         2.20654204287079    1.32401103234629    3.98189425282626
B         1.45266912777236    2.79549698377214    3.36742015477062
B         2.83253217203492    2.06701975691146    2.50069672358343
B         2.69787943058161    0.28951388851883    2.61943052829650
B         1.16506416813350   -0.02371802220409    3.48769432388890
B         0.43266122777976    1.51104890219067    4.01992676365850
Pt        1.42307657328734    3.16716529136122    1.12338960485252
B         2.38137484635490    1.05191489010537    1.11654453985730
B         1.19210068112659   -0.19871660294342    1.73777683916348
B        -0.25027384541218    0.56565311934001    2.65901837767671
B        -0.10093769706220    2.46262042985591    2.63423888162696
P         3.15139231335178    3.99218636904820   -0.39387886754735
P        -0.35430401598178    4.53023044000506    0.20165231812841
C         2.81919392208161    4.37566191937690   -2.15350312966166
C         2.29074014118487    3.33153708512483   -2.90916598077579
C         1.97482890548476    3.50966899628958   -4.24179222663141
C         2.17109462927955    4.74653847735380   -4.83656706402287
C         2.68503284975976    5.79380497620507   -4.09150523878642
C         3.00764208884788    5.61209412711791   -2.75729976050924
C         4.78353471195340    3.16410810480436   -0.61973050043856
C         3.73745715550922    5.59497746120076    0.29769210591834
C        -1.96802029331021    3.73291003083091   -0.20030212005348
C        -0.19977565350515    5.59007616542879   -1.31228746125822
C        -0.79911114476844    5.84226622846387    1.38979531663442
C        -2.04077225409123    6.46051715066672    1.45503773669910
C        -2.26846158542797    7.46344758348289    2.38084273708954
C        -1.25990693960007    7.86145733250034    3.24250950794944
C        -0.01841076386699    7.24985204983409    3.18193168468340
C         0.20689173765787    6.24434018421964    2.26126920189289
H         2.84305721104765    1.34704216658051    4.97690395248377
H         1.57799636069486    3.85724900509294    3.88648200883627
H         3.89119843071760    2.61263223831826    2.48833992121293
H         3.64800466620994   -0.40615432111620    2.71564051304776
H         1.03396553782648   -1.01397991958511    4.11830895062454
H        -0.14686693952399    1.63229558708563    5.04212604185697
H         3.03412415872345    0.94413954595305    0.13421522336461
H         1.06766496944150   -1.24486331387680    1.19945732442170
H        -1.29327206693077    0.01046919984917    2.72023624237335
H        -1.03151073050192    3.19628404010604    2.74205977545593
H        -0.45358808016686    1.53304576205635    1.79420007624100
H         1.16149938343952    0.68763700801644    0.78540883054469
H         2.12492388748364    2.37393923048711   -2.43197294147710
H         1.57021307882990    2.69032599173867   -4.81818228287017
H         1.92082850676133    4.89360990083438   -5.87669988639184
H         2.83650406410590    6.75948712263892   -4.55213514357375
H         3.40508828068828    6.44209218889812   -2.19254271794538
H         5.48641114150662    3.83513249716629   -1.11177569382415
H         4.66195078258001    2.26898392959651   -1.22419922982586
H         5.16549178704169    2.87337827471877    0.35573275092707
H         2.92909968474918    6.32421599580575    0.30424068003454
H         4.03794276160473    5.40763256386482    1.32768109319766
H         4.58963629674123    5.99067500952453   -0.25233128356223
H        -2.66229701187630    4.43351948174680   -0.66006981077199
H        -2.40683251173027    3.32021598932663    0.70467063336899
H        -1.78357028976940    2.91936307022570   -0.90110824877421
H        -1.08780033335030    6.20873084538811   -1.43511603753948
H        -0.07002799656689    4.96205417282664   -2.19163288244607
H         0.67067102439106    6.23622053318058   -1.22235914385877
H        -2.83924788865704    6.16020439655720    0.79238614794586
H        -3.23911222993393    7.93560520068155    2.43168726285395
H        -1.44495789191997    8.64305075916845    3.96444397287146
H         0.76775974190029    7.55143044856948    3.85799593781533
H         1.16451768243848    5.73785104737194    2.22207871409270

