81
CSD_code = BAVCUX | q = 0 | S = 0 | Stoichiometry = C33H37I2O5P3W | MND = 7
W         4.35656590577254    5.57939908010606    1.27612845379108
I         5.86869608404647    6.40944936953466   -0.94892618427059
I         5.32024305477108    7.76521659122849    2.73679061408244
P         3.46332507234547    5.02116052450650    3.52223684943043
P         6.04456196563747    4.38420159376944    2.64433922899291
P         2.71665822737589    7.08475909587907    0.37238548920948
O         1.74353712014140    3.94966740078775    0.62681274880515
O         4.35996865964246    2.76843168838333   -0.17707379165460
O         2.06468104044523    6.86456675433703   -1.07990316897453
O         2.68754851399335    8.67808617051040    0.40503877396073
O         1.52894967861705    6.82761193698228    1.42567283963426
C         7.70179010621114    4.98535490138756    3.11128918477889
C         8.41950972438997    5.78538142154805    2.23096905924734
H         7.98565983847392    6.09381752786972    1.28945357944844
C         9.69345758577300    6.20487377647213    2.56918169818712
H        10.24440214659385    6.83543437413550    1.88884025300553
C        10.25148441370629    5.82227342784320    3.77684167251844
H        11.24334887704346    6.15532508746263    4.04303603382612
C         9.54104324760886    5.01108414342520    4.64813217363639
H         9.97976312389606    4.70903054392964    5.58788783552317
C         8.26889643187212    4.58653950068853    4.31742830504021
H         7.71521153755584    3.94723593844643    4.99255792310687
C         6.51572084103271    2.66551827384615    2.27188938210697
C         6.42112408070330    1.58117039443033    3.13406010491612
H         6.02599230451111    1.69581332994475    4.13446314804955
C         6.83115631200926    0.33001619021830    2.70726271875109
H         6.74842459121072   -0.51431507628709    3.37626240318669
C         7.34035977040783    0.15834406818134    1.43126293598494
H         7.64896348414202   -0.82311811402097    1.10380256218846
C         7.45401627031806    1.24248322877255    0.57511385615912
H         7.85191016078027    1.11227917631307   -0.41948836659494
C         7.04403728562421    2.49235308729634    0.99345482168727
H         7.12429056737255    3.34579211368571    0.32910800826769
C         5.07969155249509    4.40956370954557    4.23501934352249
H         5.00082321387456    3.45859499092991    4.76700509470641
H         5.49596504869707    5.17592235352822    4.90044557728196
C         2.77347740761984    6.03383506583360    4.87041364887419
C         2.18273381907791    7.26319578697338    4.60922903994707
H         2.14137094299774    7.63613341807601    3.59611336706820
C         1.65355895029102    8.00695467899499    5.64954752109908
H         1.20037615990378    8.96555704562247    5.44670784992523
C         1.71236510932691    7.52618166701970    6.94642841258066
H         1.30332441669116    8.10956423821960    7.75764281352669
C         2.29601226138218    6.29580319093966    7.20790113460876
H         2.33896390381630    5.92032343215179    8.21974932304242
C         2.82539188099944    5.54754410731414    6.17458907000393
H         3.27364579179833    4.58271462480901    6.37354366888478
C         2.41459570315207    3.54044591403614    3.60224994259712
C         1.09219374592896    3.61651932403757    4.02440396217378
H         0.70143243885626    4.55235232580863    4.40003573051535
C         0.28194552481398    2.49743842812695    3.95805520195712
H        -0.74617772119274    2.56183041816353    4.28284808765075
C         0.78120651462467    1.30382672052056    3.46514476863795
H         0.14330989381963    0.43468047500729    3.40659439913971
C         2.09516093597089    1.22711539439671    3.03026878417588
H         2.48470135561421    0.30345864254739    2.62860203473754
C         2.90648956467615    2.34265784143026    3.08913271165974
H         3.92397160098739    2.28619746821096    2.71671111461637
C         2.82537963270745    4.41974545648177    0.81190651525056
C         4.21510100521664    3.83732785227647    0.33421436014588
C         2.15766666984323    5.71907123130721   -1.91797956654070
H         1.22630203239176    5.15074132712649   -1.82430010244949
H         2.98515609248765    5.07190902780351   -1.59933370709526
C         2.38064530855622    6.16873992994539   -3.35169223563662
H         2.34686922696187    5.30497815380412   -4.00930695995211
H         3.35246069894959    6.64596778765880   -3.45126531776457
H         1.60813676779545    6.87415941071968   -3.64645875540804
C         3.60854167160641    9.58061294436645   -0.21223146408789
H         4.63275917714677    9.33160013528657    0.07950994279455
H         3.35492108899817   10.55260231648265    0.22004390498845
C         3.48281134748604    9.61207098256848   -1.72305506305498
H         3.83815284540065    8.68114350863647   -2.15506080271239
H         4.08837787164207   10.42512879301785   -2.11326747544886
H         2.44605105439813    9.76418308806918   -2.01268016557357
C         0.21109330678184    7.35980939320727    1.25144822603929
H         0.03520559794196    7.53750788531598    0.18641663504219
H         0.14472349288110    8.31443739797196    1.78266131049656
C        -0.77917546273858    6.35078877047308    1.80469439139407
H        -1.79581891917879    6.67751097687408    1.60413594828508
H        -0.64385856414836    6.24310965852423    2.87840266057543
H        -0.61202997146486    5.38210519796155    1.33880396615851

