71
CSD_code = BAVCEH | q = 0 | S = 0 | Stoichiometry = C20H46Cl2NiP2 | MND = 4
Ni        7.31715882216732    2.29948493011661   10.04727259222058
Cl        5.95559303659170    1.21427300367944   11.20895308020113
P         6.20892323835330    1.63010422277801    8.27566231793414
C         5.53370012571548   -0.10621975868327    8.23504965335686
H         4.78012555184018   -0.12336319895717    9.02940902479866
C         4.87834915711447   -0.47377672307767    6.90982746092635
H         4.15078678083200    0.27507540845880    6.60294284358479
H         4.36031871670554   -1.42637190374661    7.01290021703499
H         5.62010115895980   -0.58205890448137    6.12190676076017
C         6.62345336559023   -1.10407353579734    8.62027182688930
H         7.07478209442085   -0.81266348093096    9.56804322135947
H         7.40468047942926   -1.15530396869046    7.86582464310225
H         6.19590474221655   -2.09821981442947    8.73980048044660
C         4.70795499186953    2.74045136532639    8.14662024935649
H         4.43834258831278    2.81360330416746    7.08515910554345
C         5.14867465604539    4.11538736768166    8.65102644793136
H         5.96470526381836    4.51314094981667    8.04851172560396
H         5.49441890969044    4.02735273225736    9.69055251724683
H         4.32372506895328    4.82592514995615    8.62680065521219
C         3.50585817058134    2.24903478430651    8.94564505729308
H         3.08181486877201    1.34427300452499    8.51742166747920
H         2.73141886311294    3.01530865435490    8.94630827531172
H         3.78885354286348    2.04883046901293    9.97690596543840
C         6.93672457137168    1.91652774003960    6.60288731600250
H         6.18631213955503    1.69854604080216    5.83914458899770
H         7.16372609324209    2.98565202106995    6.56056172146736
C         8.22306951230525    1.13499328067881    6.35073133745273
H         7.99417915687754    0.08913113388822    6.13547428137368
H         8.84326201343502    1.16840741663505    7.25029269461845
C         9.01671054758320    1.72094213781957    5.18534309470081
H         8.39315303329996    1.72898931697183    4.28727841929721
H         9.27977593536195    2.75378634464966    5.42125055405865
C        10.28834215089083    0.92617818821891    4.91632188502406
H        10.84544273059476    1.36244136515847    4.09065849361231
H        10.05134204213482   -0.10549795392688    4.66306039551697
H        10.92528249113891    0.92514582224667    5.79785142351498
Cl        8.67619475932015    3.39483035281322    8.89219891489722
P         8.41567080443068    2.97270452372901   11.82357714970344
C         9.09173436210851    4.70889952747752   11.86403034193590
H         9.84537470321110    4.72610562538385   11.06968569266267
C         9.74739737505567    5.07691504267002   13.18905024149524
H        10.47501139268749    4.32816370143776   13.49604536249076
H        10.26545752156857    6.02950272133269   13.08583154789408
H         9.00578179661975    5.18538598843583   13.97706346205029
C         8.00234700528969    5.70716342489241   11.47881498607686
H         7.55090193277462    5.41584581978647   10.53106849448410
H         7.22118563632090    5.75863685090907   12.23329933412465
H         8.43013364165132    6.70122466616594   11.35925928468295
C         9.91751192183856    1.86335641588220   11.95242509819557
H        10.18726398318849    1.79005120641011   13.01383171572294
C         9.47685829525372    0.48844206783775   11.44798368833856
H         8.66119187911219    0.09040149161349   12.05076188102033
H         9.13039796887988    0.57695949015375   10.40879108455105
H        10.30192359284630   -0.22198056875275   11.47161312745525
C        11.11978913536228    2.35464594468377   11.15346919836924
H        11.54397562458687    3.25934184711528   11.58169971661973
H        11.89422676655957    1.58835773857317   11.15274979963698
H        10.83682944480884    2.55487466401249   10.12220456702318
C         7.68904601599179    2.68669379746185   13.49681736661280
H         8.43952816294830    2.90476767445518   14.26050581464092
H         7.46205925463407    1.61757679897145   13.53904990489417
C         6.40278159160992    3.46840697464452   13.74847041178072
H         6.63168128742427    4.51431178864243   13.96357402215162
H         5.78275391491929    3.43477704319241   12.84876751042367
C         5.60918342767916    2.88249348385722   14.91386451746649
H         6.23276367883091    2.87448772164888   15.81191652171472
H         5.34612124676552    1.84964924671033   14.67796240592103
C         4.33760873553001    3.67735190155602   15.18279460356638
H         3.78050064262311    3.24111634252082   16.00846268830795
H         4.57465930505071    4.70902598557487   15.43603576396123
H         3.70068658077043    3.67837578630377   14.30125178445896

