70
CSD_code = BAVDAG | q = 0 | S = 0 | Stoichiometry = C35H31NiOPS | MND = 4
Ni        2.20550010879646    5.11912246149889   12.58257904391929
C         6.14757437580365    7.46134661312826   12.18011072337015
H         6.61397663902332    7.88412062781957   13.06935861349886
H         5.67998733385855    8.25960724353389   11.61038398841303
H         6.93113474735634    7.00632521598178   11.57470687700111
C         5.13014886083352    6.42586356535030   12.56767753088050
S         3.56977503674590    6.73613018692727   11.99030497702836
C         5.55574545367146    5.36835253250647   13.34477602038057
H         6.59926960336524    5.36010284227683   13.62778674203792
C         4.77151038534403    4.27704962623232   13.76430943877083
O         3.56924361571666    4.08230061158228   13.45299304944408
C         5.42011510117995    3.24512174314942   14.61714467395060
C         5.06401991254215    1.91123995077221   14.44111990790504
H         4.34353916013755    1.65918940492423   13.67821781980141
C         5.63314096052405    0.92488419848425   15.22307026210620
H         5.35425631691945   -0.10749508278684   15.07068304146317
C         6.55515928487831    1.26108213264237   16.20018236633810
H         7.00020029417677    0.49191715633556   16.81452306016554
C         6.90280510944128    2.58834891675791   16.39251547409194
H         7.61365554059801    2.85377604304259   17.16176340399742
C         6.34183317796632    3.57728060692821   15.60577019762032
H         6.60301215690099    4.61144570451028   15.77667239218423
C         0.82096704088814    6.05215194798419   11.72413515755321
C         0.42840084355741    5.56056920043600   10.47549822293236
C        -0.59557184854054    6.18850600907976    9.78149797286576
H        -0.89707631017940    5.80090209418224    8.81776698290957
C        -1.22420449692088    7.30232340226142   10.30882335948526
H        -2.01886553250470    7.78558140952835    9.75885002560002
C        -0.82603862974964    7.80074706705581   11.53577016695953
H        -1.30581785797675    8.67711169021774   11.94860596326615
C         0.19116321096105    7.17786202509879   12.24396377099045
H         0.49057792235129    7.58418981896156   13.20298445226806
C         1.11909711679507    4.34784459908043    9.90872710610948
H         2.05136345516700    4.15702715929223   10.46998811951810
H         1.36954665542542    4.49411495014845    8.85972739442985
H         0.47058000735380    3.47290937179100    9.98984660918986
P         0.71960848397714    3.74605168488408   13.41657102780166
C         1.34589199605756    2.09182487561414   13.85059227700973
C         1.77580093271453    1.28901148527368   12.79554441357964
H         1.73615926449215    1.67899614867352   11.78607659062377
C         2.26243741330904    0.01769314259273   13.03547524737026
H         2.58651892884419   -0.60220881097918   12.21156392024837
C         2.34548457282697   -0.45490846047131   14.33613832366759
H         2.72517797310934   -1.44814258974544   14.52648337029035
C         1.95642242261996    0.35367393582714   15.39030709498207
H         2.04200485836941   -0.00516854796990   16.40570086180331
C         1.45845996371773    1.62350315960079   15.15254502327763
H         1.16252385917049    2.24995603761802   15.98150123578286
C        -0.95159257669876    3.38522070724696   12.77990496702112
C        -1.34209536614430    2.13702701709470   12.31037043130671
H        -0.65993937392098    1.30021623998546   12.35670506797195
C        -2.61173201034274    1.95553642500956   11.78928783952830
H        -2.90722534242733    0.98017783573387   11.43015571765561
C        -3.49888340690867    3.01600588762975   11.72517664775371
H        -4.48609163643511    2.87118549618767   11.31191725800874
C        -3.11582740494559    4.26266167296487   12.19399118714557
H        -3.80284030976648    5.09442954760678   12.14727005680805
C        -1.85157030812751    4.44684153271589   12.71782929279840
H        -1.54905360547168    5.41880870903875   13.07964739765488
C         0.32234990586681    4.50720828178756   15.02082706948799
C         1.10897621401517    5.58018522433089   15.42585754755313
H         1.91539691421853    5.92134662929502   14.76997220081365
C         0.86638760188530    6.20943250014469   16.63291075759445
H         1.47818273939183    7.04367809699719   16.94403970454062
C        -0.16972726051545    5.76882026881910   17.44033722226306
H        -0.36494782446778    6.25861583317275   18.38307828200147
C        -0.96186995243244    4.70410737998322   17.03869437453496
H        -1.77188059689062    4.36710862879620   17.66930559088726
C        -0.72088958116180    4.07231919534224   15.83219774516655
H        -1.34194223454297    3.24653179399372   15.51248934614573

