29
CSD_code = BAVFEM | q = 0 | S = 0 | Stoichiometry = C8H16N2NiS2 | MND = 4
Ni       13.00369553666821    7.37160771331934    6.84713747128711
S        11.37763671142786    8.71388628652001    6.60574544647817
C        10.35602840380919    7.46633843854191    5.70124268231086
H         9.34144478326691    7.86341437468519    5.67421272539535
H        10.72917818586623    7.39368635011024    4.67868779988347
N        11.79842116902183    5.75537011484945    6.65326037826877
C        13.57067805948484    5.05926952219850    8.15862809271210
H        13.74688340995389    5.62454674991720    9.07660897675543
H        14.00563349298934    4.05418798388716    8.28385337192451
C        12.05396433937805    4.97504100619708    7.86265873373437
H        11.73562597408311    3.92972948128866    7.72448216925943
H        11.48488084550302    5.40084761280337    8.69164458316941
C        10.39989739171173    6.11692612970555    6.41202956357871
H         9.90248660128277    6.22133251575924    7.37960621872183
H         9.88006173184660    5.34070222263010    5.83019530755595
S        14.62975620836946    8.71388338463029    7.08852863040621
C        15.65136048364278    7.46633201757601    7.99303141711571
H        16.66594489442084    7.86340587945730    8.02006209006011
H        15.27820991005667    7.39368117783868    9.01558603106456
N        14.20896561114125    5.75536378745081    7.04101585931404
C        12.43670644128958    5.05927385740869    5.53564774662869
H        12.26050643962922    5.62455527083245    4.61766818060062
H        12.00174430756258    4.05419584259408    5.41041885264652
C        13.95341893153851    4.97503297831598    5.83161958279754
H        14.27174875568896    3.92971925106261    5.96980049730543
H        14.52250711664348    5.40083167339975    5.00263310006929
C        15.60748955139185    6.11691901815488    7.28224568973437
H        16.10489979738189    6.22132428181708    6.31466864346926
H        16.12732491494947    5.34069507704845    7.86408015775238

