97
CSD_code = BAVJUF | q = 0 | S = 0 | Stoichiometry = C49H39As2ClN2O2RuS | MND = 6
Ru       11.68770434405767    1.28469406252136    3.75213853301885
As       10.17810427646550    1.54454772099625    5.58790504568709
As       12.80734144472545    1.14097874373427    1.65524885660545
Cl       10.50456950704571   -0.73562606692001    3.28633336647788
S         8.55622288900996    4.60957054309247    1.49444954027369
O        13.84927248186430    0.05021919271443    5.41140149815204
N        10.41127432764585    3.72519400090993    3.02108449985518
O        12.39536241711773    3.23105371106065    4.04090244668784
C        16.72321981701126    3.76878531940909    1.36046070231700
C        11.49803362066722    4.05760693624279    3.68636819221011
C        10.48469871811378    3.19087911734276    6.57820615680102
C        14.40110510710640    2.24597748822503    1.48123947525504
C         9.32911204326223    2.01446465337431    2.01463442140097
C        13.52817908623268   -0.56123209035243    1.05213202193781
N        10.30054301512561    2.39472848184608    2.78671698170352
C         8.42936749030487    2.88466213927124    1.35222948526702
C        10.20897208084233    0.25914841559943    7.04319343185708
C         8.29207750647291    1.56112372414709    5.13703390563142
C        10.60071408346706    6.36112452529123    4.02939976499659
C        13.61444000461663   -1.61989158550755    1.94648019892214
C        10.78014204665241   -0.99279820755247    6.85357592789546
C        11.74501966116395    1.70789817345399    0.13354961504996
C        11.81400802825257    3.44405119269350    6.90774061773211
C         9.51242279622481    4.12231221509599    6.91857687568552
H         8.46990097894664    3.92154777311757    6.69477890041413
C         7.54233022872964    0.39719858966805    5.27997104037295
C         9.65110055501664    0.58069026383262    8.27717624252254
C        10.77334754956195    7.66059085192663    4.46566821816320
H         9.94152016311642    8.34937111902948    4.44336276559226
C        11.19827906605893    5.55865675403668    7.84672351044889
C         7.22488421942755    4.81644675354254    0.42557564268853
C        11.67054617928586    5.47278238727125    4.06425190565326
C        14.00111183007362   -0.72062435938892   -0.24719407113850
C        10.79664184377275   -1.91385004702535    7.88768441185017
C        14.54889107999167   -1.92661078069802   -0.64450898034499
C         6.22965698319719    0.35538056908707    4.84358467091492
C         6.39963646899495    2.62813826120802    4.09549049514248
C        14.86224943375261    2.72723127249655    0.26011639842190
C         5.65689020957333    1.47009443528072    4.25348721679711
C        11.58446841667917    3.06766644784154   -0.12411937801697
C         7.39794437793529    2.52611070232684    0.51440054385998
C        14.62993834680975   -2.98014819419868    0.25282744224352
C        15.11709194485175    2.53121634165503    2.63869397800049
C        14.16204692081490   -2.82743528092010    1.54669314857945
C        12.00732438777302    8.08199691102122    4.93521253752544
C        13.07595080861759    7.20084249113007    4.96406221260865
C         7.71315031435123    2.67297036960143    4.52856146898794
C        10.09618928560216    1.21584199015725   -1.54912235942588
C         9.87171971854534    5.30349898090004    7.54749974862859
H         9.11169101413652    6.02901383241776    7.79984323260776
C        12.90959390430616    5.89896637674202    4.53401848988723
C        10.98215657998340    0.78529712173656   -0.57655750047116
C        10.69782497957955    3.49509479023636   -1.09596356336623
C        10.24493214264358   -1.58656619170105    9.11470955084689
C        16.27239889067442    3.29091534024673    2.57959311710509
C         9.95417876495225    2.56892308510299   -1.80953682109546
H         9.25486134089911    2.90426547029903   -2.56127606831671
C        12.17052111867033    4.62052182532237    7.53850230046381
C         6.71416354693862    3.63177250416735   -0.01143977476290
H         5.87922255843558    3.55173797472117   -0.68534527792484
C         9.67068303213947   -0.33995205835189    9.30933306754553
C        13.01001228366699    0.46631130896224    4.74101527080491
C        16.01811096903164    3.48607143851522    0.20197742328576
H         9.64595389686547    6.02017963427727    3.66238580135056
H        13.92853535923283    0.10642612363220   -0.94749981924592
H        14.22027301811763   -3.65009289175511    2.24420751220745
H        11.24079478088207   -2.88669582814932    7.73560782650295
H        13.73022853239628    5.19687217767909    4.55412280770177
H        15.05591630403374   -3.92193789791884   -0.06078573117243
H        14.03895692243693    7.52996028406367    5.32653281543614
H        14.91228831909207   -2.04752473722353   -1.65506530007173
H        13.22811623054991   -1.49400488741306    2.95382445820467
H        17.62273922634181    4.36487524596062    1.31205951171072
H        11.08440471573340   -0.27167174587131   -0.34704590763666
H        13.20516422757684    4.81348502592192    7.78188170150859
H         9.20736404317386    0.94714843711911    1.86435520020389
H         8.30165006947078    3.57389041954802    4.37728477606288
H        14.30307533254689    2.51643434015701   -0.64653333338809
H         9.23893224441277   -0.08680177774451   10.26705882609808
H         5.96047669362421    3.49446526988604    3.62108098511836
H         7.15661904165183    1.50108479432210    0.29761567467579
H        11.20043226250750   -1.24221146266802    5.88331634835190
H        12.13619709196187    9.09834912793177    5.27824779696963
H         5.65506288296993   -0.55268780119666    4.95559123712108
H         9.20459422909402    1.56177448243878    8.41900749761393
H         9.50687069132172    0.49532576702667   -2.09789328917951
H        16.82096893523836    3.51264335486971    3.48377528873264
H        12.56953733769561    2.70556119323177    6.64280359697881
H        11.47570068953728    6.48809649877772    8.32159649404149
H        10.57646664094670    4.55160641855698   -1.28747903889212
H         6.89072472248706    5.80541625763046    0.18085289146002
H        12.15231284477024    3.79157102656480    0.45643625858933
H         8.00396009873673   -0.47949262110809    5.72352183656041
H         4.63419316119011    1.43402946357675    3.90750239257045
H        14.74523930598574    2.16268100123206    3.59144739689871
H        16.36876126175181    3.86061831304394   -0.74915779376962
H        10.26041965472245   -2.30332283448553    9.92269056197043

