73
CSD_code = BAVMOA | q = 0 | S = 0 | Stoichiometry = C32H32N3O3RhS2 | MND = 6
Rh        8.77090990401950    8.77082222442547    0.00001115906533
S        12.85263634168510    8.68575905499913    1.67762191146113
N         7.57215082020673   10.05674203834400    0.94594532978751
C        11.44574331942988    8.40733282990478    0.69998435231164
C        10.37783134560352    9.20129489966698    1.06389207024228
C        10.70869702855150   10.04119592552798    2.15033247476495
H        10.03465785685784   10.74911029969387    2.60226919046732
C        11.99102873645151    9.86866762282796    2.57683129395124
H        12.49400452525787   10.37477013175472    3.37816916195616
C         7.51407276999219   11.29644351987473    0.40552329237214
C         6.67528844058009   12.28063077018159    0.92834897434102
H         6.65444475324271   13.25428345286276    0.46249663210435
C         5.89609968165775   11.99220139454572    2.03022433991729
C         5.98550470653887   10.70807860655209    2.59414995862436
C         6.83211514289545    9.78150081203192    2.01858690203174
H         6.92518959805673    8.78506404856707    2.43609845850730
C         4.97690590434153   12.99592655806804    2.66745845719754
H         4.23428598717773   13.32219590103792    1.93340012381915
H         5.54489022437834   13.88133503691721    2.96424973501453
C         4.27421657362628   12.36960210108082    3.86885048580684
H         3.58775018311754   13.07087739566484    4.34401962354062
C         3.73236081749102   10.99528856792692    3.44409361142791
H         2.94828483213524   10.61557766661091    4.09179407718917
H         3.42048624800287   10.89488816191400    2.40595692761264
C         5.13049737007780   10.44297395677231    3.78734064714888
H         5.22467247107940    9.42745922169951    4.16745029269432
C         5.28123624834544   11.62741067146699    4.78398529917645
C         4.69080327293943   11.30965879104086    6.15392719442130
H         3.68867271523992   10.89852970907579    6.08348769286044
H         4.64445656673346   12.21554190072207    6.75562743774081
H         5.31887137550966   10.58781866448183    6.67229145493005
C         6.66808256353356   12.22300035125504    4.98913314957483
H         7.18832157025843   12.41173351756042    4.05509358398775
H         7.27587482789118   11.53814126511156    5.57757619354543
H         6.58817388188044   13.16209825010720    5.53377544015123
N         6.92793876032224    6.92790288124014   -0.00001563071049
O         7.79111272335376    6.99099957548825    0.90376124942449
O         6.07906889522081    6.07901988852457   -0.00005496051068
C         8.40740291737270   11.44564477675627   -0.69992725117738
S         8.68573252564765   12.85254222945705   -1.67758282360829
C         9.86864953994755   11.99098454565629   -2.57681894247243
C        10.04125201432629   10.70866291247141   -2.15032237792395
C         9.20142962565135   10.37777427324246   -1.06382813647315
N        10.05681256979137    7.57205628529194   -0.94584280373603
C        11.29653908589254    7.51399831945944   -0.40546430993015
O         6.99105429585767    7.79112065101881   -0.90376034546930
C        12.28068876899178    6.67521640027842   -0.92835260558169
H        13.25437694642459    6.65431844184070   -0.46257898727696
C        11.99219608857327    5.89605001754054   -2.03022215401179
C        10.70805262416304    5.98543869604804   -2.59410104855669
C         9.78150517858221    6.83203316880190   -2.01847025314520
H         8.78505673839795    6.92517934282826   -2.43593562459083
C        10.44293682296036    5.13047996965680   -3.78732305922569
C        10.99531833447587    3.73235567461317   -3.44414528438360
C        12.36960310184564    4.27426606821434   -3.86891672497147
C        12.99592781674025    4.97690232944083   -2.66749710499226
H        13.32222567127495    4.23426744823189   -1.93345747708461
H        13.88131253826372    5.54491503313428   -2.96428389945475
H        13.07089505970955    3.58784916384450   -4.34413000374490
C        11.62734017547602    5.28128511642904   -4.78399991999142
H         9.42740471015130    5.22462892290201   -4.16739719861428
C        11.30957909146791    4.69089696694820   -6.15396481326906
H        10.89846281525300    3.68876095047044   -6.08355946009317
H        12.21546679215262    4.64457169298482   -6.75565728780483
H        10.58773551547350    5.31897147214005   -6.67232183478288
C        12.22287643850669    6.66815020841263   -4.98911071477305
H        12.41157824902498    7.18838878256676   -4.05506567613611
H        11.53800366487410    7.27591798954566   -5.57755663789600
H        13.16198333188715    6.58828691506850   -5.53373932053835
H        10.61561844862488    2.94830802322885   -4.09187641306090
H        10.89494302074235    3.42043460808891   -2.40602022860268
H        10.74919654568372   10.03467862304870   -2.60228897715923
H        10.37470395211209   12.49398631480705   -3.37816788741781

