47
CSD_code = BAVRAR | q = 0 | S = 0 | Stoichiometry = C22H22MoS2 | MND = 10
Mo        3.38259904893011    0.95402667430516    1.36640864787158
S         2.50947064961189   -1.27705249477479    1.22629726035305
S         4.68300693281272    0.22915590510477   -0.45978073412950
C         5.47636576355293    1.70738151011924    2.01937429243569
C         4.63533363444236    1.41506815271029    3.11188175027492
C         4.15539288086069    0.08375612746952    3.28649565928253
C         5.10863347672302   -1.09867687727185    3.17093305315349
C         3.17574705577685   -0.11374443420898    4.42594777296122
C         5.92246480044683    3.05928750851081    1.68118779352596
C         6.69360275119858    3.22825081590207    0.52674672241640
C         7.12333256180492    4.47798142675537    0.12898369701942
C         6.80669400902019    5.59629909623397    0.88367023918434
C         6.05599493511958    5.44656673851091    2.03730004605292
C         5.61631644348233    4.19663083172730    2.43189464018047
C         2.65248362821492   -1.58971712943678   -0.47718894545224
C         3.62308595976721   -0.91935947939573   -1.23104588361611
C         3.77096226875129   -1.20776657529184   -2.58561969016439
C         2.95500264978865   -2.14236568846258   -3.18631251120650
C         1.99222354699813   -2.81228368202765   -2.43768553976481
C         1.84581513976198   -2.54481424875580   -1.09354934884124
C         1.49429166434575    1.48544832190148    0.12438167590733
C         2.43891637779585    2.41737357718526   -0.34347544776945
C         2.86668289896254    3.19815261411019    0.73635440923930
C         2.13256539080514    2.80777885085119    1.89050610077753
C         1.26961174560243    1.75360279897954    1.51067452453748
H         6.20148710124729    0.95318268249778    1.71470016848727
H         4.29541476676139    2.20008416539105    3.78156320603748
H         5.72530047221471   -1.05936260951846    2.27006632746738
H         4.53831002249147   -2.02680746559363    3.14400700349077
H         5.76700232818219   -1.12725168355312    4.04243971098033
H         2.54801489262158   -0.98219325999877    4.23185154797360
H         2.53087266238971    0.75661247436292    4.54694126369323
H         3.70530664584018   -0.28554410368903    5.36482534768191
H         6.93585395621019    2.35884575039985   -0.06849489025161
H         7.71068877394149    4.58295457481976   -0.77160647850482
H         7.14533832520405    6.57509962588809    0.57823444583073
H         5.81089696146572    6.31172346120956    2.63700988644849
H         5.03930595391898    4.11272721554105    3.34126861537695
H         4.52998545551977   -0.68452686288502   -3.14759754448766
H         3.06648734133305   -2.35602526650046   -4.23861233611594
H         1.35797612042934   -3.54753301046753   -2.90988344541527
H         1.10923900571984   -3.06269859359227   -0.49796461508346
H         0.87803496100982    0.84518766238453   -0.49579065018919
H         2.77386766478985    2.51948265999116   -1.36650268704603
H         3.53039216625272    4.04739167560223    0.67184832448379
H         2.08259303398419    3.36421938732524    2.81810969907796
H         0.45323517387857    1.35115117966167    2.09770691582575

