31
CSD_code = BAVXAZ | q = 1 | S = 0 | Stoichiometry = C9H15N3O3Tc(1+) | MND = 6
Tc        2.78795877036067    2.70395343178999    0.07954261739797
C         1.48565712040634    4.13041962902865    0.04618687266653
C         2.10573567141932    2.09253566977784   -1.62120063201787
C         1.48475492841633    1.58506371568638    0.96361432263208
O         0.73244607210593    4.98903215913852    0.03331874909625
O         1.72591535332030    1.72902230624814   -2.63534482319493
O         0.73190550117070    0.91610098071364    1.50254802647033
N         4.46545576613305    1.28078136630482    0.18071454658130
H         4.11404553165017    0.33450962975414    0.04760806769671
N         3.82722498180226    3.34038048205770    1.91398388178294
H         3.14908382388711    3.71780217377144    2.57302002600880
N         4.45700490667062    3.89611078932727   -0.72218360931124
H         4.16666099125945    4.34397706640982   -1.58921286902813
C         5.18095543096815    1.32576257897541    1.47198060358489
H         6.15925102909477    1.79034129291002    1.32805729589851
H         5.36266022839264    0.32074887262176    1.86212917451315
C         4.37538076481538    2.11451417559234    2.51148434189582
H         3.53359784327901    1.50729907233369    2.85447735499938
H         5.01311921798610    2.33090591208234    3.37785165923735
C         4.84970481747064    4.37681080794203    1.66561716061745
H         5.84423057373851    3.93893730597162    1.77886415327430
H         4.77780251226437    5.19012311516355    2.39273935613757
C         4.69493776520185    4.96518479920118    0.25801448548493
H         3.82964977194969    5.63291302453389    0.23746541676096
H         5.58585978610650    5.55633295584694    0.01114091983140
C         5.65852902856327    3.08542639571596   -1.00598820536864
H         6.43120637388858    3.31190375862889   -0.26757079915679
H         6.07841739640522    3.32524483488334   -1.98653617499033
C         5.32452521136001    1.58907902795961   -0.97130141137084
H         4.77476339133704    1.31941442261665   -1.87686148924519
H         6.25595943857613    1.00916824701243   -0.95435901888463

