78
CSD_code = BAVZUV | q = 0 | S = 0 | Stoichiometry = C40H21F6IrN4O4S2 | MND = 6
Ir        4.89122266576103    1.57331854332029   23.44090678658451
N         3.80191841315579    1.66694971915057   25.17645994215588
C         5.66899948391314    3.25579701853521   24.24173908980989
S         3.15729127691970    2.83289689846514   27.39374217523914
O         6.34242582202431   -1.71255005746157   18.75180194275406
F         0.26495246252004   -3.04987647032963   26.22983955859280
F         1.57308005918333   -2.86380490257994   24.53176096679904
F        -0.34890794486102   -1.89961423633868   24.51998591321415
N         6.10693336574139    1.48238015382107   21.77028229690076
C         6.64594931491062    4.10211788290122   23.72918623465602
H         7.13375787057975    3.85649695164900   22.79785620183003
S         7.39710945070012   -0.24545783185183   20.33261566774194
O         4.49051493938753   -2.64692835829869   17.90132017654036
N         4.00066939189150   -0.21304188434313   22.43809442218992
C         7.01222701911409    5.25931697519318   24.39731851370222
H         7.77330951829572    5.89883083085383   23.97506100759302
O        -0.26073208555984    4.73760453718006   19.60887857036616
N         3.21630136714148    2.36702355233350   22.32703686214623
O         0.02477915299469    2.78066977231655   18.56825388797513
H        -0.60391096434775    3.14581836279678   17.92590969074521
C         6.41855784239825    5.61083671131059   25.60524297390420
H         6.71907816450103    6.51472230085157   26.11228886810290
F         4.09452242724691    5.29847490160200   19.07731951811984
F         4.63526719913075    4.84460468292425   17.04498661967082
F         2.93104820015474    3.89332213553047   17.94704576522780
C         5.44841872235753    4.80010424745832   26.14982908569321
H         4.97080396699367    5.04969914083311   27.08671320129042
C         5.07698654852813    3.63600574446015   25.47217151849489
C         4.07843987009239    2.72065897942561   25.92588940679471
C         2.34147683310649    1.35896285257019   26.96289118000799
C         1.35077187761569    0.68860907285147   27.66259641771405
H         0.99275733622013    1.06857595321512   28.60537107926419
C         0.83480733691771   -0.47175053540093   27.12260926557775
H         0.06431873882012   -1.01756825546715   27.64333217486428
C         1.31278347816107   -0.94832602090671   25.89900461323861
C         2.29862260709559   -0.28689433911478   25.19203180813954
H         2.66098800586647   -0.65681803402835   24.24751769748513
C         2.82920313138752    0.88262645322921   25.72778253929481
C         0.70872661739176   -2.19021337174581   25.30386248447637
C         6.44129394673020    0.49570654930328   24.19159586163144
C         6.70661328655536    0.07764999716719   25.48792467394560
H         6.13519639003273    0.47479640123435   26.31579949175458
C         7.70836881338100   -0.84697161983550   25.75188857007208
H         7.89632239980965   -1.15094764284780   26.77141600096389
C         8.46494154392603   -1.38840681254156   24.72354714277104
H         9.23308862387096   -2.11462940886536   24.94129164334950
C         8.23394646874763   -0.99215403435678   23.42154388360754
H         8.80912431422999   -1.39686573147610   22.60204242290587
C         7.23828635653538   -0.05426007921223   23.16085060285146
C         6.94525386129811    0.44899029166124   21.84135529345304
C         6.53514406230320    1.02537183824926   19.53616872638235
C         6.39536411002361    1.23088942687929   18.17247251273159
H         6.84729959657330    0.53995124602472   17.48042104080637
C         5.63038420223287    2.29423090689862   17.74219077951867
H         5.47948860489658    2.46705357768794   16.68857185231822
C         5.05613139254532    3.16745734501641   18.67347576939180
C         5.19956376335138    2.98227546099973   20.03492747970082
H         4.78320193809928    3.68287631084053   20.74079533492045
C         5.91984625481423    1.87572465266794   20.48063537813717
C         4.20133627100669    4.29893236733099   18.18603928327446
C         4.57406069723585   -1.41483122178450   22.45451263213818
H         4.88031907728428   -1.77763399593559   23.42705973429117
C         4.82931600474845   -2.14028063822185   21.30782862626397
H         5.35597805704339   -3.07958188595163   21.36260388653689
C         4.47166378584545   -1.60098969933842   20.07338219534349
C         3.71817784340028   -0.42928802791604   20.07558796250760
H         3.38281367475248   -0.00806557952043   19.14015063232690
C         3.50582127075607    0.24062168896210   21.27277476779332
C         2.83432209010072    1.54613664821902   21.33593486340853
C         1.86356275635953    1.91836759882616   20.41019800691720
H         1.55993453171583    1.24453736337244   19.62652231255547
C         1.28919796112738    3.17676748256794   20.51132632879614
C         1.68810692117212    4.01811514251204   21.54958474427382
H         1.25400428178554    5.00052852216415   21.63966161880359
C         2.64953021998014    3.56495753601240   22.43043535688465
H         3.00046659768289    4.18805603880457   23.24247183546391
C         5.14242777335480   -2.07490809383403   18.74754564576461
C         0.27503077125417    3.66374000131865   19.53182898054487

