43
CSD_code = BAWCIL | q = 0 | S = 0 | Stoichiometry = C13H23B6Co | MND = 9
Co        1.35527003903733    3.07749998795321    0.60888950890425
C         3.06155265812400    2.37927740354399   -0.48230456145164
C         1.86699493716708    1.94755308872093   -1.13180591984540
C         1.17652687945774    3.07749998708037   -1.59618722339597
C         1.40441131348374    2.31409651928992    3.38060497580389
C         1.12527471838863    1.69650018753374    2.03831307472427
C         2.39118723559025    1.62350136317311    4.29518950085379
C         1.76239894361275    0.34580147159041    1.75801247845595
B        -1.17186016504099    3.07750000597386    2.72388764851014
B        -0.02138923610627    3.07749999897277    4.09475589459592
B        -0.21903517561300    1.66065152280248    3.12658929475673
B        -0.30893134926295    2.17093396423541    1.42177018435014
H         3.87170509409445    1.73968696297656   -0.16923813970254
H         1.63571448110471    0.92568908384200   -1.38859058387757
H         0.29209590969873    3.07749996881242   -2.20871104380872
H        -2.33947552981968    3.07750000788979    2.83235462958498
H        -0.12439288899916    3.07749999960436    5.26215498035850
H        -0.50207999241192    0.61353879645994    3.56819128722956
H        -0.86915288155824    1.49979107455358    0.63531575426038
H         2.33374310066164    2.00544725348013    5.31129516525153
H         3.41052733276476    1.76464368771227    3.93331399851738
H         2.19387335692666    0.55585441991000    4.33967900185084
H         1.43616249475859   -0.02939364747796    0.79268435348464
H         1.47905365798055   -0.39654864217198    2.50577522240912
H         2.84951259809172    0.41069591654753    1.74933266998694
C         3.06155263389319    3.77572263509224   -0.48230456247158
C         1.86699489509431    4.20744690602165   -1.13180592316146
C         1.12527473572545    4.45849980268859    2.03831307008653
B        -0.30893133447075    3.98406604666252    1.42177018056570
C         1.40441131659868    3.84090347228857    3.38060497581130
B        -0.21903517085673    4.49434847882798    3.12658929455916
H         3.87170504373502    4.41531310532297   -0.16923813589114
H         1.63571439793062    5.22931090181217   -1.38859058421459
C         1.76239898009682    5.80919850562063    1.75801248161011
H        -0.86915286573531    4.65520894190837    0.63531575448532
C         2.39118721735442    4.53149863929928    4.29518951600175
H        -0.50207997131081    5.54146120704714    3.56819128765394
H         1.43616262288580    6.18439359499545    0.79268431461329
H         1.47905362000072    6.55154865105684    2.50577517112196
H         2.84951263582405    5.74430406855344    1.74933278345168
H         2.33374305114295    4.14955276635612    5.31129518534905
H         3.41052732677144    4.39035630999509    3.93331404973206
H         2.19387333318868    5.59914558344306    4.33967898889029

