82
CSD_code = BAWFOW | q = 0 | S = 0 | Stoichiometry = C39H35I2N2P3Pd | MND = 5
Pd        2.95142548514673    2.63903083726291   12.79502434325726
I         3.65776263795109    3.79272303112086   10.55524955887386
I         1.68356127594056    4.66857350783769   14.43153696501985
P         4.99953069203154    2.91532859844735   13.68251326984177
P         2.54959263975359    1.49766878060820   14.64204959086737
P         1.12917662403022    1.69525126224332   11.88364454819610
N         3.07470808664409    2.02228015255698   16.15640450149394
N         0.95328469875739    1.26637764089024   15.11093383952458
C         5.99242010466400    4.28736600142134   13.04116468160006
C         5.50991418468084    5.57148248199340   13.28921112917277
C         6.17475712887111    6.66314751200685   12.76829233969104
C         7.31223959236309    6.47763193270845   11.99762579231185
C         7.78293551846342    5.20061966283704   11.74295873089275
C         7.12394958546983    4.09832251635003   12.25742984784409
C         5.94410376590422    1.40852898876730   13.28059727960444
C         7.07079700145125    1.02167307408220   14.00084967922692
C         7.74209519572177   -0.13712533167421   13.65551011263237
C         7.29929807568146   -0.91493922373183   12.59667504693719
C         6.17753694657009   -0.53532927637274   11.87831778666664
C         5.50070378226020    0.62032449744236   12.22071304306838
C         5.19377792564652    3.10306667619226   15.47526014539550
C         6.36865022598649    3.74739754114404   15.87658449869898
C         6.62979051815565    4.03713789699735   17.19618178315311
C         5.67711376512488    3.70953539640904   18.14562390362859
C         4.51018397926792    3.07882581257532   17.77306980593831
C         4.24077145915226    2.73248714304494   16.44131002088860
C         1.96995260303274    2.12103163331256   17.10592206291280
C         0.81851048282148    1.29399583815211   16.55934536116146
C        -0.16317387133625    0.95785997358320   14.33800872676766
C        -1.29301779853879    0.42253604529309   14.97223325964957
C        -2.45231939023205    0.13702900461508   14.28224582051356
C        -2.53076082950648    0.36718913912577   12.91959484630513
C        -1.42195844928311    0.86253131937685   12.27023990867028
C        -0.23777084437969    1.15655619027978   12.94829381859575
C         0.29461062319330    2.59974458414981   10.55379354709886
C         0.00892482442987    3.93824237368697   10.81117287337976
C        -0.61583135877086    4.70584065155642    9.84788633142115
C        -0.95074918615715    4.14282381213647    8.62712147162113
C        -0.66411702724480    2.81208019296152    8.36993724569997
C        -0.04191412557716    2.03346174256688    9.32868753520381
C         1.67912071780267    0.11727845976950   11.15844286557609
C         1.35826137550537   -1.10918902133099   11.73497269049491
C         1.89676034808910   -2.27729001269592   11.22420738601613
C         2.75688041451550   -2.23456164674766   10.13956132035015
C         3.07451284593743   -1.01748880139425    9.55684489005573
C         2.54443409696050    0.15394809747801   10.06381580394093
C         3.24349417220508   -0.22483239291753   14.66975633724988
H         4.60771863632773    5.70690283852997   13.87397985698252
H         5.79730738775692    7.65737022631222   12.95291948983847
H         7.82671987018171    7.33165823766388   11.58307339131703
H         8.66139681364362    5.05762532567509   11.13106421968166
H         7.47949027915269    3.09909423215100   12.04291486176013
H         7.41453650859936    1.62266943549625   14.83137940039346
H         8.61577439619862   -0.43502093758001   14.21675466401855
H         7.82891080195616   -1.81877621825395   12.33439417228378
H         5.82457502915069   -1.13859663026465   11.05449711041006
H         4.61294526851531    0.90855143164692   11.65375821859340
H         7.08548561193416    4.03664379509530   15.12013432046615
H         7.54906056077734    4.52692778144351   17.47643682839291
H         5.83704766359595    3.94988285187913   19.18566749017131
H         3.79887052434927    2.85365108348468   18.54831454841410
H         1.67409495340262    3.17090956342950   17.22179210563928
H         2.26226054949441    1.71669717690567   18.07745831864209
H        -0.12736047392738    1.76653999952717   16.83487157681725
H         0.84574435803951    0.27641846571331   16.97311038892808
H        -1.26939612576711    0.20223999827544   16.02645342143396
H        -3.29578782110654   -0.27277696334759   14.81715386527144
H        -3.43464740912179    0.15235217422251   12.37178611704182
H        -1.46074647886682    1.02962113968030   11.20315577502718
H         0.29591084462372    4.38075422818210   11.75827351544166
H        -0.82895297156409    5.74482120188091   10.04722374036271
H        -1.42939868106545    4.74419721044265    7.86864749186082
H        -0.92028458467702    2.37647739728337    7.41503319685519
H         0.18540080394275    0.99530362082851    9.12357161097318
H         0.67962290606915   -1.15101302853292   12.57790811394787
H         1.64133965502017   -3.22469736183458   11.67710696682739
H         3.17568508471630   -3.14952052069000    9.74706225228224
H         3.73912994553638   -0.97733957719668    8.70624218187220
H         2.79472930536162    1.10209263887761    9.60398436854108
H         4.32802055772561   -0.17407794736650   14.77936543971130
H         2.82226304690275   -0.76850076881812   15.51704947797699
H         3.00830266387279   -0.74885639694196   13.74154515462349

