71
CSD_code = BAWGEN | q = 0 | S = 0 | Stoichiometry = C30H34MoN4O2 | MND = 6
Mo        1.71171512667124   11.68827304244053    8.82566819085875
N         0.18395996443566   13.04055497429021    8.66525551655629
N         2.58847845683692   13.71496794746923    9.36012853812356
N         3.40116325284192   11.01634968802706    9.76532131721333
N         1.40500982894377   12.06400906984212   11.04523810729937
O         0.81120848504635   10.31657122208895    8.95911543001655
O         2.32551741438846   11.85190062524921    7.30685299632528
C        -1.10548451921849   12.94126859928417    8.32093010038995
H        -1.51002554590845   12.00373001931574    7.97636390867775
C        -1.74935455212093   14.16833254189125    8.46680405290191
H        -2.78109109660096   14.37310792310416    8.25720806322267
C        -0.79682543021949   15.06992142028123    8.92338775434746
H        -0.93479133465521   16.11052818637566    9.14540306160968
C         0.39796736323751   14.34960840327572    9.03908658949219
C         1.71596619580698   14.67164507869315    9.40360136765731
H         1.99441027107243   15.69250977679140    9.67334491020299
C         3.91785344674581   13.92680780144927    9.72608909894481
C         4.92844256815153   13.43520348467171    8.90112447015498
H         4.65095193279978   12.97801486966631    7.96118299444681
C         6.24665806605719   13.54535174471422    9.28554001175000
H         7.00557579217759   13.15309630968261    8.62668600526629
C         6.61132455974131   14.13081715679265   10.49824062996618
C         5.59612753175808   14.64440556410204   11.29530964927244
H         5.82270185914090   15.11901502419955   12.23604240854754
C         4.26871993938634   14.55609013715511   10.91635663234776
H         3.49481681533150   14.94290656765248   11.56606229357131
C         8.07657999337788   14.16525421680446   10.89939253341400
C         8.87089750973974   14.95294394542030    9.84837743306744
H         8.49239306926797   15.97035619047133    9.77537134034904
H         8.79810239048459   14.49149030490096    8.86791690137111
H         9.92133582216281   14.99482815725493   10.12796866131732
C         8.30117994319704   14.82600132961968   12.26218433415081
H         7.96860455146883   15.86142931411778   12.25596280502718
H         9.36335695934413   14.81740559493232   12.49764344667026
H         7.77931357044469   14.28672092023937   13.04923587856994
C         8.59566655852417   12.72218404882808   10.97459598374101
H         8.00668303078894   12.14889632180647   11.68720912674024
H         9.63498197852806   12.71433822844176   11.29594771143565
H         8.53299343226958   12.22868471347079   10.00922459544133
C         4.53116355667616   10.44228103294071    9.33571693333403
H         4.64937977080342   10.17333415744992    8.29887972606136
C         5.42477435057884   10.26561365878256   10.39016285427688
H         6.40118891261135    9.82615728527985   10.32822153490753
C         4.80282532838771   10.75734156887219   11.53032982484136
H         5.19433027311126   10.78424010977106   12.52893659043293
C         3.54587749609387   11.21804814491143   11.12087801516614
C         2.43824719579246   11.78307793597717   11.77468696338064
H         2.43958713026900   11.94030564705271   12.85529861319704
C         0.26452412287193   12.64835866281739   11.59648592129049
C         0.32799702285451   13.76716859897625   12.42119009825050
H         1.29104628484257   14.18068547126341   12.68988980514019
C        -0.83247531936373   14.38049989085359   12.85770457086831
H        -0.73848677092115   15.25777469412171   13.47668546023839
C        -2.08462690518781   13.89265874720799   12.50574097498854
C        -2.13131007851747   12.74440467355767   11.71469046799381
H        -3.08336773622878   12.32154392614952   11.43417081461812
C        -0.98521445291317   12.13030540623980   11.25979850906146
H        -1.02704435440002   11.24056406359633   10.64650562540570
C        -3.38216317304625   14.56334398235132   12.92486610220484
C        -3.15335466883980   15.80427130684701   13.79200432716748
H        -2.63197049439584   15.54917530999982   14.71171052670260
H        -4.11354194075581   16.23934562911332   14.06122632307039
H        -2.58339000752245   16.55832420038675   13.25434066020157
C        -4.23162938118155   13.56893693544081   13.72837422766323
H        -3.68993078980059   13.23991138854878   14.61267502707081
H        -4.48328502891748   12.69306060173660   13.13770006271223
H        -5.15803313894800   14.04162431739181   14.04728229698166
C        -4.13754342062326   14.99379987929420   11.65931791659768
H        -4.38874283299061   14.13818344033378   11.03937843378783
H        -3.52428045831570   15.67129354667207   11.06913723333990
H        -5.05963569354336   15.50434532221635   11.92873870890284

