75
CSD_code = BAWJOB | q = 1 | S = 0 | Stoichiometry = C37H31N6Ru(1+) | MND = 6
Ru        0.43241995912798    4.21030405815767    5.17611565131234
N         1.16056179954693    4.71885859472098    2.42544459695847
N         1.90722092112204    6.45271545348873    3.45076647007288
N        -0.31832666447331    2.93335843472960    6.49749554906686
N        -1.48615284403434    4.61224875964287    4.96013593506440
N         0.86348281162110    5.48685033001144    6.72982204356547
N         2.37407228435576    3.82035842145549    5.45225832264916
C         1.15563533577322    5.34244410711622    3.62454409549581
C         2.36902608660104    6.51700736740051    2.15758290438276
C         1.88989032565875    5.42728909621316    1.51126915795162
C         0.54358327171931    3.45464798232180    2.33627249969966
C         0.14249768827410    2.93612316702124    3.57880812299516
C        -0.45101285678314    1.68057032537913    3.54714139461459
C        -0.63779516461899    0.96804516727412    2.36323515471664
C        -1.29954903469517   -0.37541070325264    2.38632111630568
C        -0.22602489420457    1.53111339795715    1.16291114295864
C         0.36901503533760    2.77974711233926    1.14035852051228
C         2.21480561020127    7.39019926010890    4.46050586026920
C         3.54185647830628    7.66565311081598    4.76560350386195
C         3.84023041757499    8.56359400203976    5.77151896954291
C         2.83067180785670    9.20559716353809    6.48159449936932
C         3.16665246518344   10.18692788279296    7.55849267363393
C         1.50878300008621    8.93135050653995    6.15218628842475
C         1.19584938797357    8.03037754831999    5.15160607863746
C        -1.66871359589476    2.92008287379402    6.59911319275190
C        -2.32504711481768    2.07400646308739    7.49381530226963
C        -1.58845271305328    1.22147013946812    8.29231464537498
C        -0.20244327506726    1.23768604633157    8.17634354842893
C         0.38144804797892    2.10287547884164    7.27350266918127
C        -2.33602520171384    3.85563111590062    5.70308945366735
C        -3.72029453918893    3.97752440746694    5.58477155754120
C        -4.25626560939157    4.88902876264266    4.69716813858271
C        -3.38163256086774    5.66415966467364    3.94243541946351
C        -2.02333371392588    5.49196046483038    4.10479805671114
C         2.15647572299957    5.49126397720548    7.12116114738139
C         2.58105472396867    6.23132160338748    8.22451073486852
C         1.66062477029998    6.96296660383317    8.94852337947917
C         0.32845128068254    6.93359871471650    8.55125744952169
C        -0.01727299800719    6.19102820422498    7.44073593574620
C         3.02538652208451    4.62557057025835    6.33059882530667
C         4.41447062965099    4.60150095255316    6.44952278005951
C         5.15395214902657    3.72250237896216    5.68251165519896
C         4.47564668076316    2.86994345721972    4.81769999432358
C         3.10071780328249    2.95398896681614    4.73580215308409
H         2.97173978467344    7.32942279093050    1.80820114846380
H         2.02537338938115    5.11876352441118    0.49601834730243
H        -0.78162629482081    1.21534322613888    4.46984331171565
H        -1.05403506511851   -0.91512103207468    3.29835112488351
H        -0.99747060025346   -0.97243504891626    1.52965422483766
H        -2.38290727421356   -0.25634152990175    2.34828016485251
H        -0.37048542587598    0.99162370014297    0.23925517269344
H         0.68321253788996    3.21377902198972    0.20305651642605
H         4.33077767503963    7.16709436315399    4.22153514799969
H         4.87256459301021    8.77262454961983    6.00904512053589
H         4.03409591782722    9.85873964542501    8.12648040221277
H         2.32820395668224   10.32678837250686    8.23559989604769
H         3.40781977277664   11.15326488915753    7.11581936419990
H         0.71302385073508    9.43325224810575    6.68223665631083
H         0.16648964198775    7.82566784954376    4.89652906796218
H        -3.40020683279654    2.08302813271379    7.56140101327011
H        -2.07735568186197    0.55758712741638    8.98689682159541
H         0.41282243333675    0.58704861081932    8.77611259849651
H         1.45938279644308    2.12872307514021    7.16157156391273
H        -4.37026779401348    3.35701286156604    6.17906878746706
H        -5.32359710702399    4.99361366334564    4.59019860747313
H        -3.75206501757439    6.38772295155596    3.23476835866633
H        -1.32352498467227    6.07767997429527    3.52095174043200
H         3.61636260097883    6.22018589019309    8.52170993688288
H         1.96856111161328    7.53699054365185    9.80761545155955
H        -0.42613850395536    7.47910815155372    9.09427035382478
H        -1.04581622713750    6.16168582621247    7.09948838966794
H         4.90867468630350    5.27591494124650    7.12894640208308
H         6.22909235204393    3.69607447765975    5.75704475091361
H         5.00743206812294    2.15515917157634    4.21141889306308
H         2.54302740415917    2.30751663849239    4.06866407324943

