48
CSD_code = BAWKAM | q = 1 | S = 0 | Stoichiometry = C16H28NPdS2(1+) | MND = 4
Pd        4.35536157163837    5.01988526811914   -7.22323995491393
N         2.86324628938827    4.75190833662684   -8.77739223116252
C         2.59240463931582    3.51519205717510   -9.19320134953783
C         1.47672935582370    3.25369012770818   -9.97703700338886
H         1.26129069725121    2.25054039113319  -10.30733433393100
C         0.65532067381945    4.31410822479512  -10.33329144357743
H        -0.21616121887656    4.14215622823938  -10.94490807974721
C         0.95925355077920    5.59408922813909   -9.89873193924152
H         0.33557118842359    6.43269099835425  -10.16260602096319
C         2.08468006634729    5.77836452539746   -9.10115188563135
C         2.44347928894914    7.13441079296741   -8.56072614397374
H         1.69372969409285    7.43941539786131   -7.82500685460130
H         2.45129697966069    7.88366750429872   -9.35354761969704
C         5.32414081329633    7.44694564880804   -8.99911678660636
C         5.18798575989072    8.84698200686715   -9.57655006237874
H         5.99181732158653    9.03176885847111  -10.28565188139745
H         5.25141106363003    9.59330107115693   -8.78831453811326
H         4.24538180184887    8.97858172482503  -10.10386593050941
C         5.17443704312888    6.36710505803830  -10.06167980912141
H         5.96259109229085    6.49376404054448  -10.80295531222511
H         4.22033423191657    6.42762593369985  -10.58342669270275
H         5.29342619132193    5.36794968090464   -9.61007763351249
C         6.65997649534142    7.26948765045321   -8.28558324345344
H         7.47436424344501    7.47432253503616   -8.97731846712172
H         6.76166297177131    6.23873079646956   -7.92161993729431
H         6.74831236349986    7.95582718797374   -7.44611964478884
C         3.58063676644998    2.45621920221638   -8.80979302982458
H         4.42614849531572    2.48267293983201   -9.50541271404889
H         3.14631809734021    1.45866965575332   -8.84330251572522
C         3.03303027773952    2.33926958092637   -5.91744410785872
C         3.80184683934926    2.13249195549543   -4.61689496639893
H         3.10783822998125    1.94208159351078   -3.80161180703906
H         4.39086866341830    3.01325028162405   -4.37060152874255
H         4.47428353860785    1.28221583731857   -4.70103063856345
C         2.07716266482541    3.52340500865288   -5.80417919816316
H         1.38306877780821    3.34068616729884   -4.98433989143321
H         1.48332474118864    3.64413758267290   -6.71284842472084
H         2.62430081806037    4.45855787120219   -5.58062038304752
C         2.29661208862715    1.06724407307358   -6.30793359573483
H         1.67587794245031    0.74625106541685   -5.47394134452953
H         2.99624235093136    0.26434337375235   -6.53005432133186
H         1.64211608725732    1.22167803434064   -7.16342781403780
S         4.03508439472290    7.25778338494018   -7.65193519816462
S         4.38234040826353    2.69047821671388   -7.16901275192146
C         5.61595632773701    5.28713204117678   -5.62338159066710
H         6.04467711205790    6.29058035577642   -5.60496478756674
H         6.41816015320546    4.54269796964913   -5.64997255256860
H         5.01876105507722    5.15554253458869   -4.71194203832099

