72
CSD_code = BAWKAN | q = 0 | S = 0 | Stoichiometry = C21H44Cl2MoNP3 | MND = 6
Mo        3.14312919216833    5.80289132873714    5.87389034061034
Cl        2.06234138507579    7.41426139831084    4.51580313060443
Cl        4.02874559556991    4.95350032163627    3.68543165372471
P         4.95454284144375    7.41982993180463    5.82646711918822
P         1.41028309892457    4.25950319948204    5.13088511017100
P         1.95417174696840    6.98852812344631    7.63419219509893
N         3.97065948282703    4.63699573497947    6.88477044847584
C         4.64598185750545    3.71337183420487    7.58366731155385
C         4.12019989702902    3.16939710756633    8.78527460405019
C         4.83265181552694    2.21326917267107    9.48538889244031
H         4.41762233888231    1.80320408808370   10.39434043843491
C         6.06381630698704    1.76853196116914    9.04227442468287
H         6.60856456897823    1.02179092051130    9.60077406555652
C         6.58257269378217    2.28026571804246    7.86736163953344
H         7.53510057842081    1.91784820620971    7.51158656871407
C         5.90665553096983    3.23575136488288    7.13031359316860
C         2.76585202235562    3.60800080699732    9.28189076865992
H         2.45401710326876    4.44704319003885    8.64488186912233
C         1.75112908226958    2.47187597153545    9.12750981477909
H         1.68204275584075    2.16354848665383    8.08675373153893
H         0.76566625669382    2.78899599435730    9.46666880991534
H         2.05196351554379    1.60924338027755    9.71812236865320
C         2.81462609893056    4.07122622142703   10.74001856199430
H         3.63733569254281    4.76442972927369   10.89942837351982
H         2.95180320956359    3.22572785003042   11.40975547292948
H         1.88486531117066    4.56786497488784   11.01101035741200
C         6.48036614151275    3.71132391144874    5.82000341967598
H         5.91435817403935    4.59659328593060    5.50928583408307
C         7.96443955371298    4.07300190192297    5.91623950249603
H         8.16235804406928    4.71131068076761    6.77543371151692
H         8.27503211357885    4.59900191610571    5.01591306075585
H         8.57969163762853    3.18084571804861    6.00795165242312
C         6.27214510521663    2.62955126873033    4.75696428623303
H         5.21307322830881    2.40897260559157    4.65684219299347
H         6.79754720867882    1.71538039131283    5.02811888788870
H         6.63741286074975    2.97763663153374    3.79405416459860
C         4.65562943834252    9.23017372255508    5.89003020082756
H         5.58552562547688    9.76250276874961    5.68743505421550
H         4.28550519095545    9.51877277651405    6.87293108238429
H         3.91698947129048    9.49059572285796    5.13182719638171
C         6.23325049154900    7.25740274601145    7.12663331813816
H         7.10773734552075    7.85912143444374    6.87806034189522
H         6.51627275914778    6.21169688996206    7.21514873177949
H         5.82297171453854    7.58489000477973    8.08030582082286
C         5.96964488567861    7.38145358811641    4.30780618418246
H         6.77390874046587    8.11700355699929    4.36126511429327
H         5.31587316611988    7.60288170742462    3.46211537863024
H         6.38080570889393    6.38416505835179    4.16302768354574
C         0.74008358382699    4.57817065217115    3.46493396272597
H         0.11418407350878    3.74198156862071    3.14882923681213
H         1.57021341102169    4.70942620414486    2.77045413468309
H         0.15040985069631    5.49596925777246    3.48719777412825
C        -0.16773492861134    3.88527711986034    6.00170387748269
H        -0.68824732206408    3.07287061335547    5.49401277396970
H        -0.79953642499336    4.77238683284131    5.99000032817178
H         0.03118198828349    3.60091590435199    7.03177812515354
C         2.08952295048538    2.57666625943368    4.93578134246215
H         1.30819695712446    1.87287499187349    4.64612501053155
H         2.54927642124894    2.26373394235692    5.87343121990792
H         2.85899528986505    2.61832536994132    4.16558727320539
C         0.41298767382888    6.34339574741133    8.42251484832428
H         0.10223656302470    7.00782857445407    9.22950602416137
H         0.55208958588967    5.34003196229808    8.81322077476115
H        -0.36623233352506    6.32082643951013    7.66155024223606
C         2.95892117377073    7.36478932372345    9.12523411985001
H         2.33005626889531    7.62782798959128    9.97529095464103
H         3.61739495078803    8.20038917120098    8.88871725615202
H         3.57013052109243    6.49856142576910    9.36791439427974
C         1.28680962226627    8.65186932537621    7.26598867875674
H         0.92778088052688    9.11344995560901    8.18700037148681
H         0.46541123003927    8.54599904529379    6.55834303725838
H         2.04868942831444    9.27505701765516    6.80612975456314

