72
CSD_code = BAWKUI | q = 0 | S = 0 | Stoichiometry = C26H39Cl2FeNOP2 | MND = 6
Fe        8.33938105727413    2.32136695685971   17.75038082713832
Cl        8.21272716637582    3.27771427411488   19.71931071633624
Cl        8.14914956061513    1.49169374328367   15.73681227899041
P         8.84733675973406    0.41027410247820   18.66753316472253
P         7.59648087145942    4.17344225838377   16.92411707044307
O        11.06213204931917    3.11114888782009   17.21309021448679
N         6.38290147251631    1.83135760410867   18.07318584110176
H         6.23462238593142    2.18170818584838   19.02739284584650
C         7.16332296308555   -0.23042087981420   19.10714415436838
H         7.10507396741444   -1.31935528552524   19.10540379660624
H         6.93040015964712    0.13549232943894   20.11308567785435
C         6.18999044765923    0.37681269342552   18.10353623490386
H         6.39108349372707   -0.00477989686486   17.09896707377393
H         5.16535662006612    0.10894125701151   18.38704439732769
C         5.43329689692695    2.55268296617829   17.20178630006675
H         5.62335229264703    2.19335924152351   16.18148918440443
C         5.79261871965952    4.03944696815034   17.28145948492820
H         5.65881248815578    4.41076605854518   18.30293452646625
H         5.19770539692592    4.64430409640404   16.59716174128821
C         3.94574118748657    2.28794540271834   17.52879124938143
H         3.75967446340168    1.21977417855040   17.37376268128292
C         3.03389799299968    3.03319006633279   16.55304128042447
H         2.01125604916176    2.67811246110927   16.65890595094896
H         3.34626598336374    2.86039324053138   15.52535511122857
H         3.03545383153132    4.10293660871545   16.74691301119100
C         3.57468124516988    2.63940083000554   18.96896533083251
H         2.52952049800650    2.39520144532952   19.14635634122171
H         3.70534837499220    3.70156779284419   19.16086758819738
H         4.17070725366393    2.08282262790106   19.68921396383319
C         9.67716355923156   -0.97689461162440   17.73812282057442
H        10.03893981040117   -1.68741783653876   18.49211952084672
C        10.86094673959753   -0.38786506026992   16.97413296975430
H        11.51175131231437    0.18990492503510   17.62697876450078
H        10.49381394230080    0.27048828000288   16.19028134784248
H        11.44791965339075   -1.17984995192952   16.51206628887407
C         8.75333054910910   -1.70898475063738   16.77002884656099
H         7.92921765655193   -2.20245276309103   17.28031224864747
H         9.32332814021663   -2.47242823672401   16.24273327547507
H         8.35776907196685   -1.01487461829423   16.03365481173401
C         9.65231089031339    0.40635079661729   20.34971370867208
H         8.98450182435928    1.05502637745352   20.93176187562342
C         9.72076252883929   -0.96175764162836   21.02144224052160
H         8.77529312628089   -1.49498768556850   20.94670947398229
H         9.95408611076911   -0.83232351748528   22.07704633773110
H        10.50494021468028   -1.57700705739891   20.58549740149719
C        11.02125752829544    1.07605552975167   20.31404812810560
H        10.95136767652126    2.03683309405707   19.80804848168483
H        11.75329819682648    0.45682099420970   19.79973375893799
H        11.37717697484290    1.25052779635194   21.32797796654686
C         8.01829327879804    5.82912283062391   17.55438045457174
C         9.16514787885595    6.02973688012711   18.31036783763541
H         9.79008846012927    5.18674219722518   18.56463469763895
C         9.49217018676952    7.30032526038389   18.75044308290731
H        10.38203027108506    7.45046915048530   19.34360432388305
C         8.67949919218328    8.37487369672249   18.43290076769601
H         8.93302123025883    9.36603604570699   18.77943985423563
C         7.54118226874795    8.18134351132502   17.66597789521190
H         6.91072869802366    9.02123767252309   17.41154778013484
C         7.21249138788874    6.91466201510539   17.22290707701262
H         6.33275503508101    6.76558208579377   16.61139499038672
C         7.72916545468839    4.51350588979262   15.14239195347580
C         8.97231462477917    4.96936098430515   14.70978351673421
H         9.76067511140927    5.11837776599581   15.43747799388553
C         9.19714963782194    5.21876104988822   13.37057919567531
H        10.16415336948303    5.56990441731642   13.04157593676067
C         8.18242544082026    5.00944747007915   12.45008926323935
H         8.35626950582857    5.20001617551588   11.40127884066783
C         6.94958063133332    4.54458342758179   12.87364698307597
H         6.16227143202469    4.36914285434111   12.15464406126883
C         6.72069622748517    4.29132549615469   14.21470919773749
H         5.75945784262604    3.90977456401661   14.52640174876045
C         9.98986567816288    2.78030428130341   17.45690423967714

