89
CSD_code = BAWKER | q = 0 | S = 0 | Stoichiometry = C27H55ClMoNOP3 | MND = 6
Mo      -10.76870267087475    1.77982529832635    3.96088262657506
P        -9.09006796576572    0.17343679675234    3.26448983087067
P       -11.01917426673059    1.23307578416313    6.34994719141562
P       -10.92721730852771    2.75038185231116    1.72918919627349
Cl      -11.96456214915380    3.83014776597341    4.85204724217511
N       -12.22774124620392    0.84630305773108    3.61992433982862
O        -9.29278466250978    2.78475905274080    4.36166282630196
C       -13.36037322025455    0.16678288317392    3.37800650913105
C       -13.36971204443894   -1.25661742980080    3.34047532235805
C       -14.53460872373162   -1.94430569857041    3.05600182865273
H       -14.51976624554134   -3.02467347993785    3.03532198969877
C       -15.72121497050457   -1.28261959972019    2.80429389613011
H       -16.62163809988451   -1.83523466472896    2.57946512945938
C       -15.73905671618337    0.09803374635251    2.86709735649207
H       -16.67097957410948    0.61830101197151    2.69976818689495
C       -14.60114236541848    0.83027265008088    3.15013430359482
C       -12.11551273336403   -2.03504123706238    3.65336227457380
H       -11.29578324521275   -1.30402663176215    3.71380345016318
C       -12.25335839498158   -2.73227505871360    5.00991343781346
H       -12.45739659132693   -2.00471726478858    5.79184494549861
H       -11.34181678864188   -3.27423830198950    5.26118613029721
H       -13.07601036930729   -3.44413784712926    4.98806425576289
C       -11.79752041341002   -3.07119403757301    2.57161822653875
H       -11.88548251582287   -2.63533843555105    1.57856004663050
H       -12.48609603938331   -3.91103742090717    2.62872967684380
H       -10.78735478938353   -3.45783388904918    2.69739063903887
C       -14.71061790535533    2.33044542783464    3.27295071812272
H       -13.70577882979736    2.72325140668811    3.45242643498748
C       -15.58207197048658    2.70008935735073    4.47744072133725
H       -15.25124858235979    2.16661224266120    5.36463537973668
H       -16.62484298410538    2.44614424409066    4.29497440505283
H       -15.50979779976239    3.76746212050670    4.67250245065125
C       -15.28582707661237    2.97918458944733    2.01101900223081
H       -14.69923294065274    2.72267938569182    1.13147347032632
H       -15.29126396167884    4.06211427919020    2.12234038582592
H       -16.31061369677666    2.65593108993478    1.83962473917321
C        -8.50597365949903   -1.23855900549750    4.30719148968303
H        -7.66131905111727   -1.73925376439616    3.83250450951798
H        -9.30711568351266   -1.95527478520507    4.46605842111288
H        -8.19285315848798   -0.84212040796160    5.27224925302507
C        -7.44617203449967    0.94306752190059    3.01118201952819
H        -6.78784099176245    0.26071512755908    2.47169845650812
H        -7.01816916680195    1.16786729328406    3.98615114613198
H        -7.55924235905494    1.87216825354169    2.45638408261949
C        -9.26328400300723   -0.69742411923463    1.65209047001401
H        -8.54252139804717   -1.51016683787703    1.56442756299376
H        -9.09807695345142    0.02086785175669    0.84996160334794
H       -10.27159432757165   -1.09089872781650    1.56426528688465
C       -10.61718962863550    2.51829624394360    7.59468027379448
H       -10.98178107169410    2.20582847325774    8.57454293516872
H       -11.10435283402401    3.44664535708618    7.29910976293710
H        -9.54069000196535    2.67476248585788    7.64353174588013
C       -12.79262487731737    1.02363012646516    6.71498965547017
H       -12.95289394084068    0.78729204883640    7.76786514754099
H       -13.20879271377613    0.23925676770116    6.08471010028597
H       -13.27635932315283    1.96755026521599    6.46239356814188
C       -10.30463737756184   -0.22114179588671    7.23517376569975
H       -10.74003198671738   -0.31062784210192    8.23025003166096
H        -9.22737633667329   -0.08819992814845    7.33058176016272
H       -10.49929288101762   -1.12918201878441    6.67118413663654
C       -11.90696851378003    1.75347882858518    0.54742242468921
H       -12.17256173820817    2.34771436389658   -0.32730840357149
H       -12.80713370576083    1.40712176018973    1.05076120020196
H       -11.33191461682539    0.88339555870504    0.23733176379272
C        -9.49128871691221    3.18296548659949    0.65221256047206
H        -9.84796230549810    3.61120327888960   -0.28470474239192
H        -8.89848786524253    2.29556862373174    0.43652368225034
H        -8.86387067169612    3.91255157549209    1.16063551935245
C       -11.81600058445255    4.34900666114894    1.62622537050793
H       -11.90204842873687    4.68506828374306    0.59168871471571
H       -11.28052930799572    5.09325980632932    2.21508379801510
H       -12.80351827685558    4.23102296292869    2.06562133455093
C        -8.70101406429039    3.88227761432914    4.91612269652761
H        -9.42001338904238    4.35058988314489    5.61999410135100
C        -8.34734421433687    4.94272089278970    3.85922881918939
H        -9.25551148235381    5.18803601567285    3.30232624160023
H        -7.61321444223244    4.52124690904901    3.16441898076950
C        -7.41810337288348    3.53240556703018    5.69291864278623
H        -7.63564902950638    2.74319325833437    6.41916311557763
H        -6.67327935399617    3.14611126058545    4.99143408411741
C        -7.78095256244778    6.19074594091779    4.52539080259595
H        -7.52719244182465    6.93346849140959    3.76499832644949
H        -8.54478689709223    6.62371791561932    5.17508310638190
C        -6.86565075421461    4.77302951179415    6.38393648102205
H        -5.96549048698357    4.51597285845479    6.94810258637108
H        -7.60701402155772    5.15579497257727    7.08956687366719
C        -6.54347185286399    5.85106927586184    5.35226688156840
H        -6.17537137244029    6.74828278383583    5.85444044138038
H        -5.75199991153790    5.49083802916787    4.68956884487171

