60
CSD_code = BAWMES | q = 0 | S = 0 | Stoichiometry = C17H38NiP2S2 | MND = 4
Ni       -2.03648541063543   -0.49848880684310  -11.90381668663349
S        -3.50845069951103   -0.69639863313937  -13.54783138158528
S        -1.46226363743348   -2.63618751248408  -11.96723593310973
P        -0.32053163222793   -0.07639869675965  -10.64228625559174
P        -2.84970769321969    1.45597022448792  -11.42304260060802
C        -4.13853027671914   -2.40294894118859  -13.42395479997624
H        -4.31182062787708   -2.60681098758717  -12.36613117456185
H        -5.09724091168900   -2.40701819633478  -13.94562624633943
C        -3.19613919317760   -3.44356389086741  -14.02053280761600
H        -3.48397004501745   -4.42489983526150  -13.63288025615101
H        -3.30215975962441   -3.45809141349401  -15.10900189804543
C        -1.73280610566473   -3.16677793223261  -13.69014041129822
H        -1.33810196628179   -2.38082368955144  -14.33593569344055
H        -1.13145481099026   -4.06777462561203  -13.82325666899762
C         0.49986295198565   -1.14929628017182   -9.36785696877630
H         0.88076270021412   -1.99873320736869   -9.94535695581074
C        -0.54328140171071   -1.69744125398531   -8.39876004885666
H        -0.09632337667578   -2.45105982517232   -7.75317623476563
H        -1.35304609461793   -2.16172265204439   -8.95909383878096
H        -0.95091330012064   -0.91196417232749   -7.76409313047389
C         1.64826246564573   -0.46637471017225   -8.63283437122093
H         2.16531105304243   -1.19327040453645   -8.00819480615499
H         1.28110698136135    0.32755368223390   -7.98618403007175
H         2.37047292922299   -0.04182129747649   -9.32615075452550
C         1.04308668068917    0.30663477370350  -11.85892650393128
H         1.73069793242413    1.04497611295266  -11.42666247272283
C         0.35747128871355    0.89249239180104  -13.09321474969360
H         1.05512006396365    0.99124455421540  -13.92336442353552
H        -0.06502908870428    1.87210307510127  -12.87989365254750
H        -0.46262939482649    0.21983202465406  -13.40923090823068
C         1.80118371274270   -0.96055758290005  -12.24374015412797
H         2.42389561823577   -0.77035305290013  -13.11680890306312
H         1.09331638885662   -1.75153154927516  -12.49070943429181
H         2.44625596154749   -1.30688203472083  -11.44033788124969
C        -4.20774393114871    1.08245410738531  -10.19654672370463
H        -4.29664381037879    1.90810302075516   -9.47858571607039
C        -3.78495317440242   -0.19545304394637   -9.47151242899357
H        -4.59458554583458   -0.58835792196681   -8.85827039073530
H        -2.92328004460830   -0.01713786725235   -8.83155508459548
H        -3.51160532829355   -0.96578098333848  -10.21793103235509
C        -5.53860861655464    0.85553815869388  -10.90791913979626
H        -6.25616169572328    0.41055205796005  -10.21986027108233
H        -5.39615178302600    0.17357220768517  -11.74594317522484
H        -5.96253109911212    1.78434841695173  -11.28129036690526
C        -3.59440903364198    2.73361798401211  -12.54595950105477
H        -4.48582660234760    2.24127183955537  -12.94975150134586
C        -2.65921937599696    3.00271930307380  -13.72105098457915
H        -3.15772442690446    3.62391062037902  -14.46284701355280
H        -2.38412174140581    2.05998180215866  -14.19123942532191
H        -1.75600623321857    3.52108338330972  -13.40225462408692
C        -3.99221174703216    4.02270649371456  -11.83504813813537
H        -4.55102747593870    4.65940384660215  -12.51927672894735
H        -3.11411249970515    4.57507954226150  -11.50757532450932
H        -4.61938128024485    3.82463714759858  -10.96897253032549
C        -0.57661366630158    1.53702755989150   -9.74304042602017
H        -0.92582718472514    1.26833261033667   -8.74264234257253
H         0.37851142246306    2.05798105206816   -9.63513734324459
C        -1.61138932734826    2.43109406451373  -10.42648586322254
H        -1.11249831050497    3.09448607038229  -11.13784525136364
H        -2.13139878998458    3.05561287247099   -9.69509563546502

