114
CSD_code = BAWMET | q = 0 | S = 0 | Stoichiometry = C43H65N3Si2Zr | MND = 11
Zr        2.78291733123609    4.25981559885197    5.02447833748865
Si        3.12722547268809    0.97748515278556    7.19235572614376
Si        5.30266676360540    6.27014436359314    6.89712658182506
N         4.11671845685158    4.56023590640904    3.22571020853321
H         4.09653943260673    5.58789444163676    3.25312788697657
N         5.11696586941114    2.87940238024032    1.87087545414988
N         5.41779411265550    4.97161388674413    1.26406753206343
C         0.73127573952664    3.73330673207652    6.20455434648837
H         0.39757943741308    3.03975771927539    6.97414245959677
C         1.17734564483355    4.99376812360581    6.65568983826042
H         1.12437336154238    5.15766031491190    7.73308169993988
C         1.69369599761489    6.08774469028107    5.88415120129334
H         1.93329016119335    6.99167815493821    6.44330558340293
C         1.61587829009486    6.25968648433155    4.44823845149347
H         1.83502296664557    7.26478852094055    4.08070629826113
C         1.20402397374817    5.32026150374445    3.47763051394124
H         1.17134782993362    5.68223748066530    2.45098343173066
C         0.90647653673795    3.93445664490059    3.63821899708064
H         0.61320742282547    3.41097221603163    2.73116872799294
C         0.75578482134915    3.20111926250202    4.86953736212385
H         0.36954385531984    2.18815269201614    4.76652681023310
C         4.82850601140578    4.16813384765226    2.21199884356349
C         5.89281995918035    2.89139149605917    0.72110314670221
H         6.23079766733522    1.97859607479720    0.27663886757198
C         6.08067887040024    4.16945712496062    0.35280328194721
H         6.62030815151088    4.58863983726608   -0.47100453792246
C         4.91687059510273    1.68769484743773    2.62572350628730
C         5.95799844318963    1.23810593138935    3.45067469515942
C         5.83822140013899   -0.01824847709987    4.02747950060853
H         6.63252935436094   -0.39675658368262    4.65012596337326
C         4.71591965333496   -0.79380559114270    3.80762518271669
H         4.64349065274545   -1.77595541857499    4.24900307606195
C         3.67694082704080   -0.31364059572349    3.02935609166291
H         2.80923748864670   -0.93402133854366    2.87840620561397
C         3.75306604074571    0.93392334980687    2.42773439328565
C         7.18659523042433    2.08217588809387    3.70598753468115
H         6.96021731167064    3.11901065115804    3.43462754765403
C         8.35638360791904    1.60191247570659    2.84081875327455
H         8.57991623445145    0.55925806057265    3.05456779794540
H         9.24340852395246    2.19537817520360    3.05124361069430
H         8.12587441197918    1.69363450538398    1.78195438267939
C         7.58968456731153    2.07024583174569    5.18314008346745
H         6.73044828488006    2.25301758967567    5.82311885505591
H         8.32653517058358    2.84876818593843    5.36778957632959
H         8.03191858693214    1.11738508112764    5.46120814024853
C         2.64496969474076    1.46463590627786    1.54559986233074
H         2.58064328734052    2.54925727620815    1.71300529014485
C         1.28475898923863    0.85297880949751    1.87917315556804
H         1.23406824525240   -0.18716046398783    1.56482307915499
H         0.50025522354704    1.39305269791524    1.35329793978524
H         1.09026621816747    0.91420545368310    2.94713278643919
C         2.96515257699678    1.20567510688998    0.06802602270811
H         3.85570667533014    1.74112744113279   -0.24948299788119
H         2.13378875716721    1.53086792108577   -0.55357581271670
H         3.12364507868364    0.14186455475985   -0.09895791691946
C         5.55811901503097    6.38124640507979    1.38823158479103
C         6.75963305582845    6.89499064318915    1.89493384336886
C         6.86198314838748    8.26799128134505    2.06132227622483
H         7.76934150549551    8.69138561101611    2.46306775852130
C         5.81445664236877    9.10454642843535    1.72240407424942
H         5.90948323430187   10.17039145256143    1.86233526280119
C         4.64539809740581    8.58102662166888    1.19323194442249
H         3.85031737552813    9.25347893969117    0.91770123403115
C         4.49229431148756    7.21545110816437    1.01920286297045
C         7.92318281954272    6.00006323553527    2.25644591185341
H         7.69259197897017    4.96876083068737    1.97371708089297
C         9.18323663370641    6.40865282291093    1.48908017508631
H         8.98993278491285    6.42544333748298    0.41841223411977
H         9.98332892216678    5.69790618434180    1.68406596330062
H         9.52404524923474    7.39522779440151    1.79055075510046
C         8.17189542583372    6.02318816612385    3.76578726887684
H         8.41574384967803    7.02745348216546    4.10308941193144
H         9.00203523062954    5.36601872220853    4.01685721581807
H         7.28794488124859    5.68710677792336    4.30418074684505
C         3.25162831849386    6.61861892260478    0.39247969130357
H         3.02163922104020    5.67678115230242    0.90524154593684
C         2.02431429430348    7.52199299591936    0.49821584129645
H         1.87338895348053    7.85632704705814    1.52179162418708
H         1.13900947355748    6.97305917317702    0.18418489095475
H         2.12062307122518    8.39182120984282   -0.14742485343278
C         3.53393932123720    6.30620252563020   -1.08249303403918
H         3.81541606684378    7.21549628745515   -1.60996038874683
H         2.64419285103506    5.89472268091956   -1.55368498449451
H         4.34053297171861    5.58470308790850   -1.18530921122759
C         3.80748449975605    2.38486618798920    6.18502094043705
H         4.32851213313943    2.13262409217033    5.25028709539525
C         4.17332886531892    3.60648996787329    6.78451681577538
H         3.81795122558295    3.79892927713915    7.79745536006529
C         4.92932802125242    4.61095395593205    6.15489448832975
H         5.50413141295916    4.29359077118367    5.27865961469570
C         1.77471482197448    0.01369352288069    6.23206646577126
H         0.78827386466221    0.43696283090440    6.39131724850796
H         1.73733178236584   -1.02570485640184    6.54322329565550
H         1.97871522658212    0.03163714618311    5.16516132455606
C         4.48824171060239   -0.30821519573697    7.63202431791120
H         4.88247560870216   -0.77926367629470    6.73790285270993
H         4.09968705004330   -1.09348606250959    8.27298064619863
H         5.32055598548007    0.15722639423863    8.15106284433845
C         2.42773134750892    1.59901809093925    8.86363227689144
H         3.22784042681657    1.84545556892038    9.55476800849782
H         1.81203178638971    0.84024683167200    9.33683445062316
H         1.81664409603470    2.48698414548251    8.73627187567749
C         4.23706736583181    6.58804871922584    8.45429245446781
H         3.21091939923599    6.26622623005613    8.30890263654930
H         4.22203370181035    7.64157536123328    8.71550658358136
H         4.63509743975538    6.04835133732591    9.30796335932461
C         7.12566410737366    6.50118576930258    7.46163292240644
H         7.37406823370907    5.81951805479564    8.26900555919597
H         7.29671880160004    7.51095854913244    7.82157582871755
H         7.82835753598133    6.31927733475364    6.65570510885830
C         4.97400867088590    7.60819276001641    5.54816473536768
H         5.75735355651454    7.61273927986419    4.79501018592981
H         4.93523293504535    8.60716946931533    5.97175128185256
H         4.02785441285093    7.42420529146254    5.03870733842135

