98
CSD_code = BAWNEU | q = 0 | S = 0 | Stoichiometry = C24H56LaN3O12P2 | MND = 9
C         9.27248654608993    6.73402229501892   12.38610569662543
C         9.82480383255675    7.67018845292147   11.31661364191400
H        10.85853954488220    7.91796763635064   11.55777199787049
H         9.26739126305465    8.60132498918223   11.26885888412714
H         9.81163167949339    7.20582301474614   10.33496389867747
C        10.22944291903305    5.55462934248135   12.56890042255819
H        10.47744993453052    5.07737564897999   11.62615711383069
H         9.80329542386812    4.82061750258748   13.24890206947286
H        11.16194556654392    5.90942140681523   13.00805849337416
C         9.21567606630949    7.44055417343854   13.74257299909838
H         8.77861082367005    6.77293554629212   14.48153883022488
H         8.64709994021761    8.36218954346007   13.71713712594624
H        10.22892318738568    7.68280865310733   14.06253084279082
C         7.63461383084953    4.57723546231773   10.76509750919552
C         8.14758573527469    3.34141305047036   11.50673136817149
H         7.65247148173002    3.24862521735851   12.47221675748429
H         9.22192224684809    3.34818987616412   11.65257649938904
H         7.90326241755242    2.45107641265156   10.92944977994025
C         6.20634705696315    4.25834713142900   10.32337232145553
H         5.81049592280764    5.01384563773238    9.65135215098665
H         5.56336988296173    4.14924575670649   11.19350840580010
H         6.20071947738297    3.31118045490816    9.78494638487005
C         8.49029799182378    4.86025188346049    9.53333478620903
H         8.39956115099299    4.02252410866605    8.84238890253074
H         9.54259687995894    4.96651011023108    9.78078744787173
H         8.16439168048447    5.75814776618045    9.01581142911892
C         6.33084870618007    7.38762554500862   11.39879065813020
C         6.48257225981937    8.57409532837224   12.35104648137856
H         7.42673740538356    9.09265089429218   12.21210196113452
H         6.38600495911580    8.23174950347598   13.37930526538991
H         5.68799412557568    9.29531982095239   12.16040431417006
C         4.90082634285715    6.87061881263988   11.57728034297529
H         4.21721915218017    7.71609441177589   11.64324414114406
H         4.80941458141559    6.29675791992888   12.49917673682974
H         4.57127104439674    6.25467165306030   10.74890843769631
C         6.55291716974668    7.85199074241172    9.96355480602131
H         5.87061055083042    8.67430381190709    9.74860063304107
H         6.34735989201548    7.06117021712286    9.24803000791464
H         7.56691414965644    8.20758377097017    9.80550663256511
C         7.53095433967189    3.83150957032884   19.65613212433577
C         7.50661231039250    5.31802298821392   19.28779139926807
H         8.42541175648618    5.79066645091509   19.63382759883109
H         6.67285322364334    5.84741051035360   19.73469748833165
H         7.45466545347061    5.43038439456961   18.20582738671206
C         8.90901910648290    3.30820562419583   19.24531226376445
H         9.67602657781923    3.89959973217409   19.74671307794874
H         9.07036236393594    3.40988491328604   18.17551222256381
H         9.06007061452971    2.27397188828107   19.53788615299111
C         7.37970788239638    3.64781070944747   21.16320983365429
H         7.34523014419927    2.59567140882280   21.43159666149380
H         6.48980363241050    4.13705302336760   21.54764031105600
H         8.23952338443159    4.09348110934084   21.66381753241604
C         6.53031941765792    1.09796192399613   18.39384204530212
C         7.61391148810701    0.93907293260803   17.32675675543123
H         7.76584237817547   -0.12127454772296   17.12760982921751
H         8.56920026256273    1.36305038449885   17.61317634948297
H         7.29170073852823    1.40531747967757   16.39742623446332
C         6.93021573937647    0.38137829767142   19.68066628974089
H         6.20527548988204    0.54667933548027   20.47264347249873
H         7.90752387649342    0.69482969014946   20.03583304959209
H         6.97941871018318   -0.69015469603803   19.48818181981640
C         5.27209127121991    0.44350006258623   17.82156570955605
H         5.52286469616609   -0.54958690487862   17.44983705449971
H         4.89000696770517    1.02179044200032   16.98384169143949
H         4.49622778015001    0.32509900072036   18.57195649752240
C         4.43921656725758    3.24352896202592   19.36340451639206
C         4.15126046231321    2.44726982827907   20.63260887709007
H         3.16414248198473    2.72518514172819   21.00190127140311
H         4.87224135335045    2.65075939538312   21.41831963770597
H         4.13988529496322    1.37796275781267   20.44201236396056
C         3.38882575021004    2.91364331302448   18.29813298327076
H         2.50324775147704    3.52834416378644   18.44905694195993
H         3.07477525710758    1.87603801316151   18.33436973600834
H         3.76848986504868    3.12871158455710   17.30345543834249
C         4.31694662073778    4.73869172574082   19.65767183057363
H         4.58756351088341    5.30640735510172   18.77015636438647
H         4.92816918441150    5.04346971033868   20.50210707540206
H         3.28238833901320    4.97521691273752   19.90511091014493
N         8.26327685404071    3.96204565043171   15.60346388579477
N         5.01592060078597    2.32506934436516   14.13569429604579
N         3.45433463815663    5.36521798293485   15.55318484625266
O         6.99545927634683    5.51964348497987   13.29556369336733
O         6.22378976879921    3.59054565467572   17.26127999511356
O         7.54296939406304    3.22531220701479   14.92577594595183
O         7.86978335131841    5.10639926512258   15.85870646128011
O         9.33409757812015    3.59219832052338   15.98887665507447
O         5.35333120257751    3.16614204338378   13.30022935210747
O         4.58086968063123    2.75051613260967   15.22091048330081
O         5.07638485156397    1.15396176028537   13.91549325621661
O         3.86375865913454    5.32088039486984   14.38696047840710
O         4.30768674059786    5.51084588631841   16.44436489492774
O         2.29223914494618    5.31332972368557   15.81599961576740
O         6.13130089259937    7.26967684318704   15.55199417826063
P         7.53374167987472    6.02933949942169   11.99984473154103
P         6.17831920813866    2.95732875591892   18.61465314181762
La        5.82603191224114    4.55127467454829   15.05410769355352
H         7.04954486571432    7.29870545765302   15.85291824794935
H         5.58284483310646    7.40481882480638   16.33783317074067

