58
CSD_code = BAWQUL | q = 0 | S = 0 | Stoichiometry = C29H21AsF3O3Rh | MND = 4
Rh        0.39740270596888    1.17856831754128    3.03972178121341
As        1.98945002388634    0.47622041812664    4.62663632700647
O        -1.08846746489807    1.52168706989120    1.66644373191280
O         0.03775249109177   -0.75778668346830    2.86209016842471
C         3.88600535941811    0.80181617148909    4.34317898953582
C        -1.74671680285114   -0.72905735152785    1.27458451167903
H        -2.44875913532101   -1.35845617134818    0.75659082410543
C        -0.85434285118468   -1.30844047194573    2.14886776505720
C         4.87006588552924    0.07715754558866    5.00717289117196
H         4.58121484659648   -0.71733918084725    5.68922501399126
C         0.76500279434109    2.94592793544658    3.27966507222829
C        -3.28542744480133    2.49269827491010    0.30226385228825
H        -2.93945815740559    3.05242120779379    1.15840986927167
C        -4.13017492920907    1.03298490247645   -1.89031139766494
H        -4.45064286872283    0.46849301120103   -2.75352806118061
O         1.01647491466331    4.05041111305863    3.47909330815203
C         2.56901998844763   -2.28214174642735    4.10483287659640
H         3.07371053998282   -1.86392527607417    3.23724148188127
C         0.00337376498411    2.28742639039796    7.80230020889017
H        -1.00421791260999    2.63987692933129    7.96845790100992
C        -3.21466540196258    0.48159491630425   -1.01297933258151
H        -2.81220063198600   -0.49990753955747   -1.21180746562048
C        -1.79902239850575    0.67476161928447    1.06816739778072
C         1.98168659044636   -1.41989402239284    5.02554420231353
C         4.25769368094096    1.79130549229736    3.44057046691893
H         3.47782751691819    2.33133616334504    2.90853522225986
C         0.35491304674790    1.72988619341497    6.58622562009319
H        -0.36994952941825    1.64578821740778    5.77174766560449
C        -4.20707761476296    3.03490174348789   -0.57185492911418
H        -4.59176869603739    4.02927264698694   -0.40033876118966
C        -2.78958783180361    1.20503626779850    0.09889099130707
C         1.65077581558396    1.27291908063928    6.36705601138830
F        -1.89592849433516   -3.43909967078586    1.68255256938546
C         1.30723980800910   -1.94328140976142    6.12060880546592
H         0.83113884512417   -1.27058753787847    6.82778402329909
C         6.57027987677617    1.35301261045791    3.89447862036318
H         7.61468080753623    1.56680744596264    3.72162700167324
C         2.49663007190380   -3.65069707190245    4.28542174323282
H         2.94512966327658   -4.31599232093312    3.56218826935164
C         0.95189953862223    2.39714247873982    8.80696980013603
H         0.68315840999657    2.83540793283255    9.75675593684002
C         2.24578951693778    1.95088568357703    8.59343997032478
H         2.98432619980194    2.04392712464500    9.37662575620905
C         1.82996643997330   -4.16686518645366    5.38554244541165
H         1.76376207014490   -5.23601604557208    5.52249097496118
C        -4.63414628723854    2.30444367944549   -1.66904528161878
H        -5.35336898333159    2.72711024715052   -2.35485885979502
C         1.23738758714206   -3.31459425787679    6.30142761930831
H         0.70953048955582   -3.71910340545744    7.15291170497721
C         2.59622350315028    1.38743938907706    7.37764906674348
H         3.61075827766790    1.04519630669660    7.20657765247702
C         6.20771790118005    0.35467118092148    4.78441013527612
H         6.96963293863694   -0.21013871055413    5.30229916160246
C         5.59564601104102    2.06874858329911    3.21839649628397
H         5.87986593157060    2.83860145887177    2.51596395334065
F         0.24562707624699   -3.40031648467523    1.85974055422933
C        -0.88288150771657   -2.83340908515329    2.32055861288694
F        -0.98455598576033   -3.18053611931645    3.61288906290148

