25
CSD_code = BAWSAU | q = 0 | S = 0 | Stoichiometry = C10H8Br3N2ORe | MND = 6
Re        1.86861818736627    1.52215078384441    3.60802015196980
Br        2.59564461460498    3.86882804081897    3.16447395899772
Br        0.66384424736799    2.30554152251902    5.56135801149896
Br        0.52424465403603   -0.58046829028053    3.67120264700053
O         3.26309808217294    0.95187925407069    4.29659628246199
N         0.21131562373679    2.12947061429387    2.16636069161794
C         0.45534823617506    1.86666295438560    0.86937651520134
C        -0.47498219437949    2.18525707211848   -0.11789827530797
H        -0.26820754208339    1.96981338437483   -1.15217439478001
C        -1.66898344518835    2.78158288244918    0.24154115878544
H        -2.40016531335507    3.03397904866291   -0.51051122478245
C        -1.90606786370200    3.04680750514166    1.58130746334679
H        -2.82035234951754    3.51025715666491    1.91209130240680
C        -0.93899179922233    2.70413224865654    2.50797233015860
H        -1.09584876671034    2.89861332055909    3.56114173732581
N         2.51628039317771    0.99881530604460    1.67127076343201
C         1.74576875094783    1.23414748063670    0.59498733393887
C         2.17707303019658    0.88533299679950   -0.68464437391483
H         1.55117914161768    1.07951329469632   -1.53873223251493
C         3.41117604150152    0.28919390621568   -0.85114582994049
H         3.75751312697857    0.01341149991236   -1.83450382969704
C         4.19268504724910    0.05357605122028    0.27213933598943
H         5.16259198537329   -0.40895156790230    0.19580900275474
C         3.70635087363149    0.42411624908547    1.50870335056761
H         4.28256723802377    0.25913728501115    2.41055812348410

