54
CSD_code = BAWYOP | q = 1 | S = 0 | Stoichiometry = C24H25ClN3Pt(1+) | MND = 4
Pt        2.69475648173861    7.00940496640330    6.32677934141777
Cl        1.55039083807212    5.24632705918204    7.14977372630496
N         3.57243038881798    8.66203443595673    5.64646223150426
N         0.94650443198380    8.22643300263932    6.10287044707445
N         3.03181965708952    3.49258943544001    5.25826966476696
H         2.47311479294632    4.04376408721575    5.99216857071111
C         4.85419645248405    8.86037949883631    5.37495295082933
H         5.51396951370642    8.01091165554855    5.48268123091109
C         5.35867255404829   10.09828627213221    4.97856666818316
H         6.41230679883208   10.19505107619607    4.77386757505213
C         4.51083626926870   11.17493606782446    4.86310731415457
H         4.87414533104109   12.14733360534773    4.56919920048211
C         3.14428208956558   10.99381314485633    5.13362854464327
C         2.71478820958665    9.70582646433380    5.51808285330969
C         2.18866467882583   12.04659856346687    5.03716853210525
H         2.54244916467514   13.02458914546968    4.74958379736030
C         0.87613461977154   11.83258340578819    5.29735875667022
H         0.15873836159542   12.63545379274312    5.22489094395653
C         0.40373151608603   10.54123861289251    5.66694653945487
C         1.32546225159092    9.47856096843868    5.77471731581670
C        -0.94710941346898   10.25729046446489    5.93267276179049
H        -1.68044374653336   11.04666511207737    5.86804390085035
C        -1.30891636979373    8.97472943828895    6.26902400817195
H        -2.33488675434052    8.71989216433603    6.47913061343893
C        -0.32573157565006    7.98423109966174    6.33842955143441
H        -0.59031242382537    6.96603446781643    6.59260704112036
C         4.41969578054744    6.02777430699749    6.66342001806800
C         5.18519937710854    6.46167084591335    7.74568120003749
H         4.82706110465396    7.27953869633418    8.36305503330962
C         6.40103181715651    5.87487411152038    8.05474153982242
H         6.97169171088893    6.22928960704593    8.89945240703228
C         6.88730787506067    4.84048993335170    7.27357763877942
H         7.84017705021055    4.38832908720316    7.49935980091235
C         6.13966950827002    4.38443436030023    6.20403714387196
H         6.51692887338158    3.57738250245497    5.59157626287671
C         4.90905252543309    4.95989054603476    5.90347929663317
C         4.08258249092683    4.41772649542856    4.76286874722854
H         4.70650601331981    3.88811193026644    4.03918779520844
H         3.57043831599291    5.25118584504248    4.26310798552785
C         3.57928943462709    2.29916327685246    5.92970155980799
H         4.29874069302024    2.62830851423690    6.68057906906304
H         4.09548366289034    1.68546302438745    5.18583546944470
C         2.45127196363416    1.51349902638618    6.58402583094676
H         2.86740909131127    0.63731456868653    7.07968694283151
H         1.97442868040338    2.13758470618538    7.34111975690148
C         1.42272943941637    1.09706607220590    5.53801132249924
H         1.87771337134466    0.40886616492342    4.82297537293453
H         0.59309009708926    0.57906071000657    6.01621343075074
C         0.91357103553116    2.33766377252896    4.81239767321580
H         0.39209137672963    2.98602585214640    5.51786475314467
H         0.21597799558270    2.05905718147994    4.02322997898548
C         2.07807580378338    3.10670877455455    4.20192039395537
H         2.59995490217589    2.49405101887474    3.46143386091448
H         1.71513589138460    4.01441106131243    3.71647563377131

