65
CSD_code = BAXBOT | q = 0 | S = 0 | Stoichiometry = C26H31MoN3O4 | MND = 6
C         4.94740811806722    8.16511654920322    6.89908386543968
C         6.01403555984572    8.62052126466467    7.85604381111398
H         6.89133237994347    7.98098027443433    7.77947909070198
H         5.64591821726513    8.59057261644356    8.88217845642027
H         6.31213313345841    9.64772769298830    7.64390507189314
C         6.33653226173826    6.55398631659023    5.87864617894386
C         7.25444915063275    7.12584211754491    4.98543201545106
C         8.45531300041434    6.47714833150963    4.74676839209572
H         9.15709875501753    6.90922139586153    4.04821553883088
C         8.76546932846976    5.29449142645675    5.39311872363480
H         9.70510993318254    4.79981788039704    5.19846401861201
C         7.86981380063600    4.75279695397302    6.29526759834347
H         8.11224836519155    3.83544480394069    6.81257600549027
C         6.65559449059020    5.37125834796300    6.55351605589693
C         6.92567758587146    8.41502860268676    4.29618927609402
H         6.89836378946643    9.24008288705392    5.00915387288055
H         5.94334116861786    8.34658159891302    3.82453095529773
H         7.66820863738689    8.64166109782895    3.53565249022878
C         5.69487223902387    4.76272552536628    7.53230362850154
H         5.12634761639984    5.53040699303678    8.05634731417755
H         6.22773806492413    4.15690035536523    8.26309864147880
H         4.99097997544634    4.11631287565941    7.00308422772521
C         3.70663867280880    8.85699809803463    6.78548553624855
C         3.40866377174723   10.07379346195693    7.61724047098514
H         4.12483685164418   10.86958318429488    7.40873035366854
H         3.47825595597108    9.83873835011067    8.67957666628635
H         2.40829742141878   10.44517244436420    7.40309730786944
C         1.76480672913279    9.09905800261645    5.46743161534024
C         0.51831696432272    8.80757914363723    6.03107225223545
C        -0.60458960184171    9.48156628988427    5.57412100043524
H        -1.56776694062844    9.24912112890395    6.00563791621751
C        -0.50416160627596   10.43997836592138    4.58406060086303
H        -1.38703019953029   10.95412304447284    4.23523004413974
C         0.73426835940582   10.74200850364567    4.04766867114653
H         0.81863082787989   11.49747393861763    3.28001028594903
C         1.87776576863655   10.09236160785406    4.48371178719051
C         0.38143310977533    7.76359502091322    7.10034672575230
H         0.23183305109025    6.78435778638459    6.63959708791945
H        -0.47968493781330    7.97563966499011    7.73174481323211
H         1.27352268547363    7.71584517139833    7.72393933122752
C         3.21750203529065   10.42195197255550    3.89990456755530
H         3.92723559786472   10.70473868801097    4.67735985761969
H         3.13403773044241   11.24038003493157    3.18959738928629
H         3.61883491309909    9.54840129181207    3.38299543526856
C         3.87632719979822    7.06912396136356    3.22024227160261
C         1.67445218996919    6.24841568893040    4.24891031984831
C         4.12419958003943    4.86482259837245    4.47628482538953
C         2.15983218824043    4.73316540277782    7.17157650725697
H         1.85393442430170    4.11110899577148    6.31388308405457
C         2.11718685629203    4.93806805880642    9.58093527062077
H         2.66218233856256    5.84473812997215    9.32488968236562
H         2.74011967262018    4.31010085426952   10.22128237740939
H         1.20676222202190    5.20370644824746   10.12208756333215
C         1.05837204892185    3.00918461972253    8.49825003042410
H         0.87045940638109    2.57563667482560    7.51854499156570
H         0.10189130520434    3.19158697672754    8.99438473179774
H         1.62937230595007    2.29589565246982    9.09778293581818
N         5.09304133504798    7.17553539052689    6.05478457158204
N         2.91516246612048    8.39546058107169    5.85036742806572
N         1.78958991272117    4.24057130249709    8.35950566961673
O         4.08605400446537    7.22219005195066    2.09486255779041
O         0.63861705591339    6.10960668939708    3.75930500084307
O         4.59263464399873    3.87222315284120    4.11967138036382
O         2.77925399655694    5.77584743674383    7.03421098373028
Mo        3.41882211535393    6.58602022940106    5.03072287076354

