66
CSD_code = BAXCEK | q = 0 | S = 0 | Stoichiometry = C27H32MoN2O3S | MND = 6
C         9.50171053428033    9.40529375294043    3.15922336174461
C        10.85718221839068    8.87678163126102    2.78986142013382
H        10.98355764550508    7.85769563748474    3.14885172308793
H        11.64560531859041    9.50113428967103    3.21021682867254
H        10.97468375263512    8.88204575294693    1.70639877613382
C         8.93833562669432    7.52844904348981    4.46964364328836
C         8.37076505291530    6.34055968087863    3.98913672466223
C         8.59927604017966    5.15848724680105    4.67604387818837
H         8.15367795501729    4.24599291800990    4.30826894264677
C         9.38619467755162    5.13314949007685    5.81296976527635
H         9.54537261968900    4.20695269704495    6.34410437440480
C         9.98553787828227    6.29780103581445    6.25249572493672
H        10.62557632802804    6.28163010510188    7.12328752132268
C         9.79015852377342    7.49927080908816    5.58539867850869
C         7.54204763569749    6.32788424303694    2.74184238876523
H         7.64214007594742    5.37054205325628    2.23463432761391
H         7.83864663375683    7.12231595764951    2.05829681047237
H         6.48931533383548    6.46844372802566    2.98917314258350
C        10.50315804176644    8.73046419430485    6.06909355925772
H        10.62109576679521    8.69976930270470    7.15015474818381
H         9.97058446261729    9.64377816422065    5.80123834042051
H        11.50107499586793    8.77999660274576    5.63091851486452
C         9.04997328870972   10.67103694990843    2.68034696090288
C         9.90087614805923   11.52365176158888    1.78407651783748
H         9.42134005199222   12.48443537017507    1.60864524167400
H        10.05524703582241   11.03449885245744    0.82205015329845
H        10.87919812038198   11.69187315822040    2.23328669833404
C         7.20826892137625   12.13708603744621    2.58208889947784
C         7.16827366351191   13.29528428294633    3.36970325593227
C         6.42931159045616   14.38429942635247    2.93877952756781
H         6.38953191938770   15.27118554756122    3.55463915323027
C         5.75238778123706   14.34753954178560    1.73316685484687
H         5.16909001510703   15.19721700427429    1.41219275782112
C         5.84555035163823   13.22566352357664    0.93344094398685
H         5.34588406745445   13.20094806687344   -0.02406049956327
C         6.58158515797517   12.11724828647752    1.33050857105573
C         7.95969842470145   13.36024714723165    4.64046361753527
H         7.79498211008625   12.46546082398409    5.24278322801683
H         7.68243616512044   14.23533669144246    5.22263778215909
H         9.02710293064682   13.41767478210916    4.42023918767260
C         6.69643247345177   10.94936873799657    0.39452287851644
H         5.70685894378788   10.60344160176229    0.10112328157726
H         7.23411135393951   10.11583438385252    0.84393809028286
H         7.22544596708184   11.25442194768367   -0.50937703258169
C         5.78195905677143    8.98836403842799    2.64654971867031
C         5.18800588225977   10.76847348234214    4.30258958511270
C         5.91234790445922    8.15587015203299    5.08870947178044
C         6.14616470901226   11.23377885204529    7.36193210901181
H         6.39464775514476   12.28933146011179    7.46027125291335
H         5.26859564553117   11.11717168796703    6.72704206116215
C         5.96453853377716   10.53409207907479    8.69710723730792
H         4.97218417568193   10.73118065219494    9.10196500540861
H         6.71057690556522   10.88728270890441    9.41275907095001
C         6.18068074458283    9.05229738175604    8.41538026489282
H         6.19938220785349    8.45912703481691    9.32993639726646
H         5.37955074804830    8.67858717792311    7.77405715188055
C         7.51034736546998    8.96262143612493    7.68950407206298
H         7.63650147161921    8.04333300851660    7.12157425635960
H         8.34672325500318    9.08622806587143    8.37965836450095
Mo        6.75711703298592    9.64136773914202    4.17819433486388
N         8.61952149721812    8.74908697240947    3.86303620787967
N         7.84758214437773   10.98980167351149    3.07076838619277
O         5.05668636488332    8.57996482513255    1.85299422728505
O         4.26680356753028   11.45760514461447    4.26568037870636
O         5.41693498428047    7.21678421737937    5.53819704308286
S         7.55946444827036   10.39375794741033    6.54614413791214

