48
CSD_code = BAXCAE | q = 0 | S = 0 | Stoichiometry = C19H24NiP2S2 | MND = 4
Ni        3.44971194242328    2.96997501909681    0.44406625241044
S         4.33481646038080    2.00783301792476   -1.31248366170241
S         1.87302199754160    4.10480406222570   -0.57814899611720
P         5.26623819227014    2.57605181833454    1.44103015332055
P         2.32327557939910    3.24813365731021    2.19051944181926
C         6.06511343645514    1.57677523636638   -0.87925417281907
C         6.22214421227144    1.25210703822089    0.60171516838565
C         5.42941806787699    2.29119152539538    3.26970395158117
C         4.07970227748185    2.07131755087384    3.96019471946073
C         3.13017981825542    3.27117624643639    3.84785255963217
C         1.19836277410130    4.69074097772181    2.07109843084158
C         0.60277831211552    4.54482449279400    0.67431282835585
C         6.27787066833989    4.06074057914190    1.16349664859391
C         5.69331634153128    5.07429368432248    0.40972318196597
C         6.40222030925396    6.22861364127805    0.13321219610652
C         7.69526888424028    6.37034216114879    0.61076976294829
C         8.27951919420713    5.36165082076692    1.36220183934328
C         7.57519303545152    4.20493337965746    1.64218606057269
C         1.20567378882330    1.81912767133180    2.29563506936292
C         0.23879768849378    1.65901494916301    3.28115939567750
C        -0.57860056408230    0.54363707456221    3.25862808400475
C        -0.43467022638947   -0.40782513952501    2.26003734254194
C         0.52666761823146   -0.24923385097279    1.27459493648091
C         1.34625622873191    0.86394757560760    1.29229799722511
H         6.32546965812831    0.72754615410021   -1.51152778315053
H         6.69559185395005    2.42706498178286   -1.15035358700111
H         5.74436949304766    0.29546890925100    0.83794609225757
H         7.27000050677768    1.22545359326441    0.91899262865077
H         6.06228540814113    1.41267505447346    3.42607820149599
H         5.92832783762868    3.16066205183871    3.70681823906053
H         3.59059155915057    1.19316579213367    3.52243906826576
H         4.26362458313659    1.85351077134783    5.01630307743979
H         2.35876749397495    3.21763444352668    4.62132136074387
H         3.67685303706227    4.21138718006183    3.96599174693706
H         1.80767474858386    5.59795083130347    2.13627306097169
H         0.43668073804301    4.70594796853226    2.85712946586372
H         0.15327397540683    5.47378004514828    0.32300154940456
H        -0.15572339475029    3.75834025943746    0.66458308978850
H         4.67219967326364    4.93177367034101    0.02870626087097
H         5.95086283864292    7.01288986729239   -0.45578842825678
H         8.25430058470068    7.26920928874413    0.39559406234804
H         9.28975877269761    5.47741382711006    1.72757294578923
H         8.03087437057346    3.41521710372643    2.22486286686408
H         0.12072075671963    2.40391506479259    4.05676973107515
H        -1.33462814043646    0.41609549151226    4.01998319266241
H        -1.08014739465446   -1.27382215654069    2.24954130593742
H         0.63183679640619   -0.98713304300504    0.49347321512954
H         2.10295820640613    1.02387966064777    0.51103944685556

