45
CSD_code = BAXCOS | q = 0 | S = 0 | Stoichiometry = C14H28HfP2 | MND = 10
Hf        7.54042977114515    6.45125655356395    0.78862277505765
P         6.46363059433134    6.20642397749633    3.51520909562440
P         8.52452754418948    3.76874787681947    1.49460030786773
C         7.14371978519155    8.62381942148115    0.91973961750846
C         8.54195371608649    8.94320104963861    0.55733403847497
C         9.58084025569690    8.21334276640102    1.01857635646039
C         9.39119009808306    7.05823238984588    1.93248170216556
C         5.67340993402085    5.27153657804085    0.30855360648106
C         5.54081857783576    6.00158838184319   -0.97762302269240
C         6.61168070401596    6.31815692583472   -1.73780305029384
C         7.98949762955497    5.97340109903189   -1.32393238611826
C         4.64703490999068    6.20945219126929    3.84984100674218
C         7.02775020004408    6.62729566070824    5.23368701229162
C         6.73365098788373    4.36362611378486    3.60056152157407
C         8.18295925302350    3.97234777482555    3.31621596990621
C         7.91016809575652    2.02594417210129    1.31212853889618
C        10.32535242149605    3.37722082509602    1.62298780073539
H         6.42602906069895    9.20893449510891    0.33941663925465
H         6.95451266059550    8.78615824962217    1.99467353218614
H         8.73000747894377    9.75253462749886   -0.14421433746838
H        10.58950185689580    8.45460566928354    0.69024510933723
H        10.34807891411257    6.56345733212061    2.13056194025809
H         8.98835419174627    7.40150146530440    2.90121733532746
H         4.69802603034193    5.17168396906961    0.79677029236711
H         6.06028820166388    4.25329074551160    0.12937481225066
H         4.54888270725207    6.31457231118548   -1.29630620274441
H         6.46626292790345    6.89136698906918   -2.65037353156339
H         8.73954328624223    6.43713235854472   -1.96937338910412
H         8.15045881866135    4.88181359833687   -1.31201260834764
H         4.34030484364057    7.22579152264921    4.09067786263086
H         4.11702733970700    5.89505950887486    2.95466564881232
H         4.39482417707570    5.54911829185165    4.67874465321635
H         8.10170483522026    6.47281136728466    5.31560534438016
H         6.51584960513595    6.02934160894639    5.98644444078051
H         6.82391738881233    7.68148493882186    5.41352723106349
H         6.43767561689123    4.01992168647141    4.59769460679911
H         6.06438178367739    3.89883758258691    2.87153792540304
H         8.86460102239467    4.73908813152514    3.69444882110173
H         8.42531113068203    3.02878766194538    3.81721846423293
H         8.14448567226549    1.68279807148574    0.30586608947855
H         6.82903921468131    2.00348674579664    1.43291613226169
H         8.37098412049469    1.35546850896991    2.03623944923784
H        10.51787191444211    2.64618268053394    2.40748640458868
H        10.87701943383199    4.29076588214391    1.82854712458022
H        10.66354128764849    2.98011024167353    0.66741931899843

