68
CSD_code = BAXCUA | q = 0 | S = 0 | Stoichiometry = C28H33MoN3O3 | MND = 6
Mo       22.17562122573646    1.89344844875717    9.40363590204528
N        21.91255798705590    2.36515684721918   11.40009622008170
N        23.79632292778775    1.06450747959537   10.40983731597184
O        23.12391966578862    1.01072358241909    6.59326382476388
C        22.81627213364703    1.98627637684204   12.26861705380537
C        22.74076932132360    1.35626823189376    7.62360099495595
C        19.93128733783956   -1.99419789071930    8.66326821869356
O        23.22715366843957    4.68698586814811    8.59250251708830
N        20.62985553996007   -0.85286557132416    9.10622470034205
C        24.69648467149552    0.23876325824090    9.72191013492196
O        19.53026323292304    3.20932772004954    8.48599611779808
C        24.57991522513404   -1.15612190082466    9.81635072721985
C        24.98859835333833    0.67677387098768   12.55805248757950
H        24.61425872149245   -0.05506763258913   13.27421678249523
H        25.45107836863710    1.48534588669884   13.12390794339423
H        25.74800000020014    0.20471288184937   11.93811305611480
C        25.40628967769490   -1.95486326323156    9.03907408644126
H        25.30388670935669   -3.02924750827297    9.09895856672202
C        22.90363379105775    3.66195000582010    8.99600674611608
C        22.51455936000292    5.16820003766725   11.89179272863837
H        22.51227153067800    6.05259854578121   11.25703666162525
H        23.23101529637713    4.45522333338759   11.48582741057344
H        22.85504760074158    5.46995286569141   12.88353184718965
C        18.66381333709230   -1.51999135147325    7.94468303941693
H        18.02686469342749   -0.96038191025413    8.62619829380262
H        18.10881346956695   -2.37502198531122    7.56747177138950
H        18.92632376087192   -0.87262289103026    7.11097512510166
C        23.59354756591625   -1.80293769995838   10.74651972558900
H        24.06906006982888   -2.02434801493321   11.70361406692459
H        23.24360069165755   -2.74419623587850   10.32713452933035
H        22.73435344747487   -1.15891383342892   10.93296481331127
C        21.13001602801009    4.59252935705196   11.97770969429760
C        19.57358688278595    2.72846984790421   11.92597112019144
C        25.68552877605474    0.80688808397016    8.90798377076637
C        20.84159985789352   -2.76526558326203    7.70192945136222
H        21.12005323574122   -2.13271245922070    6.86217714926790
H        20.32611232919938   -3.64563647835919    7.32680190191810
H        21.75204972032001   -3.07797989101412    8.20800592239922
C        19.57457403160718   -2.84829690037811    9.88422384823628
H        20.47628859966529   -3.16392973852486   10.40448246152786
H        19.02513978746748   -3.73161565167404    9.56982364192819
H        18.95706127920024   -2.27968690695135   10.57631311319048
C        22.76885232418431    2.30909300482167   13.73470981187256
H        23.58271614953480    2.98105739094984   14.00833704295966
H        22.87520609425561    1.40052682008848   14.32666489156592
H        21.82500727730065    2.78687456875900   13.98919434820978
C        20.87444576292038    3.22890038196261   11.77923599832650
C        26.50182729865412   -0.02430255149051    8.15722537405397
H        27.25979596006751    0.41636131542825    7.52628068365394
C        18.54142172080991    3.60372004253449   12.22157798204114
H        17.53852008115394    3.21667048872077   12.32943657853494
C        18.77984126390847    4.95706718571067   12.37906305758809
H        17.96511861187993    5.62964080327515   12.60065723839074
C        26.35837572868861   -1.39856592930261    8.20679953816919
H        26.99391085341258   -2.03346078807465    7.60825619585931
C        19.29482261967928    1.26475580619142   11.75819660862632
H        18.37177940406128    0.99427068258004   12.26680790465133
H        20.10766623166647    0.65695635306701   12.15589823023743
H        19.18487001648959    1.03241189510640   10.69746991687384
C        20.06782891809271    5.44062024409430   12.26082091341346
H        20.26484348621288    6.49428704881492   12.39620065655854
C        25.86963372877558    2.29268747248660    8.84309593805320
H        26.89730397782637    2.53539060911885    8.58114487791474
H        25.62860073203921    2.76669610786389    9.79423218075530
H        25.21775693003327    2.71411324925803    8.07623794128244
C        23.87290893981979    1.21346446566283   11.70788168615251
C        20.51827554911712    2.70188451417062    8.79093979243667
C        21.23282042891838    0.11407758689499    9.36002912732367

