98
CSD_code = BAXDEJ | q = 0 | S = 0 | Stoichiometry = C50H43ClP3Rh | MND = 6
Rh       10.22436750666633    0.38997206537014    3.52947760436042
Cl       11.71729909481833    1.26637069088887    5.18848384007096
P        11.56406576568116   -1.52046450859014    3.37538371017003
P         8.91285251938046   -0.16290216088006    5.29127966421231
P        11.02591718298947    1.45147100194137    1.69271555409013
C         9.06451843022555    2.07736462975100    3.63727517243460
C         8.38333416899069    2.41294171557712    4.81155572865038
C         7.63847752144509    3.58125625677640    4.89112765699415
C         7.55712036355476    4.43321188512081    3.80536480788854
C         8.20906881747069    4.10613036585671    2.63052843286556
C         8.94830464841481    2.93525671163523    2.53886885035712
C         8.49563830837091    1.48315296551955    5.98727016557113
C         9.60030910776113    2.53805524357103    1.24242802818587
C        13.17855439326548   -1.26180767181211    2.54861178276134
C        13.89458088989434   -0.11949266552606    2.90354920382411
C        15.12194075561037    0.15079659059499    2.32763777536327
C        15.64920597732003   -0.71438727522886    1.38289001638000
C        14.93301622838954   -1.83862388712845    1.00928679888922
C        13.70133703215883   -2.11044343045097    1.57958989316753
C        10.97761294352371   -3.03852617988820    2.53904636795105
C         9.85491110240687   -2.99456504274163    1.72470812884913
C         9.41282043558332   -4.13235800710634    1.07178820328768
C        10.09173543718729   -5.32774646467922    1.22786127244159
C        11.21328253154255   -5.38218829239050    2.04171135041602
C        11.65568741739896   -4.24721945887731    2.69380543819711
C        12.08796927991386   -2.25655272359610    4.96654025278478
C        13.24873599556870   -1.86597078805804    5.62193675726751
C        13.57842218598041   -2.42860792725632    6.84264257162675
C        12.76011594972826   -3.38509768724971    7.41760218517762
C        11.59257471206036   -3.76664493946431    6.77698048493000
C        11.25098440505661   -3.19460579268568    5.56780613477722
C         7.33537966334102   -0.87041489774568    4.72634685483509
C         6.13686033756118   -0.17117444405495    4.69331423995170
C         5.00074375719828   -0.77046782061037    4.17400526996892
C         5.05229064134427   -2.06245431958780    3.68073783974044
C         6.25168471400415   -2.75883194283538    3.69161143795724
C         7.38545018569357   -2.16238928358080    4.20510785132132
C         9.25972772589184   -1.09158909318030    6.82343947311309
C        10.38193165445838   -0.73049455891308    7.56530972394752
C        10.64306251552454   -1.34313053314645    8.77567711037520
C         9.79046268569272   -2.32227861228289    9.25793479546602
C         8.67681751658935   -2.68848409246075    8.52142326233406
C         8.40821105522422   -2.07789632193035    7.30940939301212
C        12.35930299902038    2.69494036928190    1.57560002506493
C        12.98349446240674    3.20089227023159    2.70724594884739
C        13.93925250727148    4.19634189674569    2.58566361808631
C        14.27069140295844    4.69677527842224    1.33948546241506
C        13.62968377251510    4.21307225355997    0.20871167460081
C        12.67368732848493    3.22337829004754    0.32414114433610
C        11.30974427614794    0.42178721483136    0.21463952258882
C        10.23588915508973   -0.25919951007707   -0.35098055413927
C        10.43032670272360   -1.12550079078351   -1.40969064350945
C        11.70410682619604   -1.32841011085277   -1.91451312442182
C        12.77935452136587   -0.66263403258764   -1.35189964066932
C        12.58744945873832    0.20109895043116   -0.28891019626968
H         9.17024870145548   -0.13403095844906    2.59306048138064
H         7.12377520093711    3.82359665793607    5.81148870115659
H         6.98275232192124    5.34554142663029    3.87228191273754
H         8.14054047985482    4.76142764176179    1.77263963213975
H        13.48563358640855    0.56172888927066    3.63663662532590
H        15.66265323336382    1.04175861290277    2.61339979477152
H        16.60915072399004   -0.50790127603381    0.93203438658238
H        15.33183981846082   -2.51040853420938    0.26253197195704
H        13.15022512527385   -2.98031492549232    1.25467621818632
H         9.31980431165111   -2.06259264195076    1.61609160281882
H         8.53487673122136   -4.08459500228693    0.44388837424577
H         9.74892998151819   -6.21819070460954    0.72128340368576
H        11.74505874990546   -6.31441536931951    2.16764964720982
H        12.52808547419530   -4.29562543897011    3.33154690876385
H        13.89628705366236   -1.12344606171794    5.18134914095289
H        14.48374339615222   -2.11901610088686    7.34436643075848
H        13.02674613911278   -3.83030257906722    8.36489857700455
H        10.94304779270400   -4.50490612815276    7.22439686631636
H        10.33333549399832   -3.48928880862468    5.07481532582636
H         6.08484083737784    0.84487734681915    5.05447839170884
H         4.07055274978485   -0.22111740740660    4.15129875371237
H         4.16258031566596   -2.52396071095454    3.27782631649704
H         6.30216548225216   -3.76230861822103    3.29354367125854
H         8.33279589763347   -2.68783753648618    4.19814074931446
H        11.05900128694636    0.02096302517151    7.18514497992979
H        11.51481142990066   -1.05418378489624    9.34393669396584
H         9.99273414736443   -2.80006113100107   10.20555848059748
H         8.00788105454424   -3.45141380092242    8.89394165060344
H         7.53150690177226   -2.36671850621403    6.74748047047363
H        12.71840886817041    2.82530739132436    3.68428310357885
H        14.42287346457588    4.58204045111962    3.47121191315081
H        15.01993206072138    5.46945848090963    1.24479929904223
H        13.87423518906348    4.61253430792050   -0.76536046195111
H        12.16914440961374    2.85431836418064   -0.55939822989818
H         9.24043774191460   -0.11384056985674    0.04627246721633
H         9.58775298981785   -1.64645686582341   -1.84101982369937
H        11.85750604860253   -2.00599402404511   -2.74151700535016
H        13.77633334942937   -0.81952957521161   -1.73691980711304
H        13.43449174383129    0.70804532712349    0.15049315640532
H         7.59960669739672    1.45090248534404    6.61625052571167
H         9.34459006344370    1.77616949604735    6.61802074103246
H         9.92557501259836    3.40301555916057    0.65660953457510
H         8.89074096797699    1.95626021927703    0.64342410453060

