58
CSD_code = BAXDUZ | q = 0 | S = 0 | Stoichiometry = C18H30CoN5O4 | MND = 6
Co       -0.61485912266208    1.78210418267255    3.60241126148662
O         1.05518688921978    1.96426783460648    1.24436302357081
O        -1.89600822928158    3.89694006778943    4.95387776194634
O        -2.43998732675358    1.60458768929112    5.82161288462840
O         0.61449994086174   -0.32153244300889    2.21502143656168
N         0.31904070785423    2.60928097506536    2.18577517690826
N        -1.08827810895930    3.56171896372465    4.00276979837372
N        -1.61292475138856    0.96264641697248    4.95367069431136
N        -0.15988132123501    0.00589433108416    3.19489331288337
N        -2.30991524294096    1.63379830619095    2.33822681135731
C         0.84207942258573    4.74346759018989    1.08141556637040
C         0.20442781400683    3.89416973163515    2.13059749501737
C        -0.61306279802332    4.44887543925085    3.17549718208991
C        -0.90637216187700    5.91179429462260    3.28647385830193
C        -2.46461113656074   -1.17767590159748    5.82036062079366
C        -1.62497983357901   -0.33011131773634    4.92206447361212
C        -0.76064819281132   -0.89170242908213    3.92093909606465
C        -0.57640856644273   -2.36352038665121    3.73126448508952
C         1.13498870033893    1.97801083936819    4.60801197556421
C         1.42172114667417    1.67426059653626    6.08189612723086
C         0.53517474613380    2.48254766803948    7.03035187745224
C         1.32132453169604    0.18384825287953    6.41443319893064
C         2.88406873252921    2.10593806717332    6.31294386900242
C        -3.48706833367125    2.14275261438823    2.69337892265329
C        -4.60835879472002    2.08052110682567    1.88370315589493
C        -4.50905805997542    1.46435244174254    0.64703427468404
C        -3.28412842355725    0.93396329661380    0.27649616407365
C        -2.21589206825786    1.04047750689866    1.15054725372711
H         1.01416332766785    0.96544046250590    1.54442519996480
H        -2.27083832538207    2.62007049536200    5.61958113022364
H         1.42641476260518    4.11756894357089    0.41225595502557
H         1.49315006979429    5.48361519734135    1.54318133930442
H         0.08138658236666    5.27198945814371    0.50876440487527
H        -1.53332197448375    6.07188521126738    4.16108636648115
H        -1.42923793710172    6.27281285215714    2.40150277620503
H         0.01422352305558    6.48282735828250    3.39767687425605
H        -2.96876589354834   -0.54904800779046    6.54979669730570
H        -1.84605351997248   -1.90955740789971    6.33652087555898
H        -3.21111853418912   -1.71659779757397    5.23808601546636
H         0.10099675788009   -2.52121778272706    2.89480395207848
H        -1.52677108089216   -2.85246289722244    3.52137797053754
H        -0.14714336854924   -2.81425688164306    4.62512303504475
H         1.40148028653529    3.02864886904584    4.45700552096892
H         1.83653055170651    1.38184479346233    4.01653694728108
H         0.91233472757935    2.41257420792479    8.04900182839785
H        -0.48409857189839    2.11418069191056    7.02792990670861
H         0.52088243022236    3.53016540438218    6.74100231984028
H         1.75711830665951   -0.01066948908329    7.39287542361730
H         1.85538006446273   -0.40986998218984    5.67612841336777
H         0.28727839148566   -0.14231555008567    6.43805844551458
H         3.17553590678845    1.90987874511366    7.34286092613164
H         3.00819251439679    3.16936522154205    6.12143335386452
H         3.55642961558964    1.55719535060832    5.65732058664169
H        -3.54502228090368    2.62521672562772    3.65940381561340
H        -5.53828307465700    2.50965588403570    2.22143122912423
H        -5.36324972574456    1.39947323073152   -0.01031380563490
H        -3.15198645037284    0.44350947538232   -0.67484064918916
H        -1.25397724030105    0.62780148233385    0.87975138684585

