58
CSD_code = BAXFAH | q = 0 | S = 0 | Stoichiometry = C17H30CoN5O4Si | MND = 6
Co       -0.68173184815824    1.78508978671941    3.64640084243502
O         0.84987648740319    1.93305096770264    1.19851704559847
O        -1.77747283659258    3.91721933131092    5.10881811932822
O        -2.32631012770217    1.62939641655381    6.00794820818550
O         0.39446951386996   -0.34744465075746    2.16904115062727
N         0.19919831355040    2.59258463013468    2.19117365061244
N        -1.06051398753836    3.57034851519756    4.09259037779440
N        -1.58167603717023    0.97681394847073    5.07851007968542
N        -0.28844436250382   -0.00239279255830    3.21030496350852
N        -2.44411801699181    1.68019911307455    2.51268091774848
C         0.72923621584922    4.71860328598963    1.07251553281867
C         0.12506546581806    3.88170128629890    2.15097729198059
C        -0.60490835440345    4.45273518294888    3.24956178139779
C        -0.82705546646311    5.92425881736589    3.40173601013415
C        -2.36793999337515   -1.14874428986455    6.03251221054925
C        -1.59301952921553   -0.31532171082979    5.06606072306161
C        -0.82101985986589   -0.88931137813216    4.00025598618310
C        -0.66381451748782   -2.36397749600001    3.80570329834499
C         1.06743964258334    1.92150925304602    4.62481575731468
Si        1.29678896446085    1.62571974847171    6.49236274531887
C         0.19276600922075    2.71219432400704    7.60931392386813
C         1.11391280553197   -0.21860763916686    6.97157336111931
C         3.11960665911617    2.11293256073437    6.83556018454668
C        -3.58376954151969    2.20164271125499    2.96157470922739
C        -4.76562030467264    2.15687849291927    2.24206311268248
C        -4.77159088786269    1.54585401961348    0.99877828940417
C        -3.58577591742850    1.00399374004312    0.53025647472209
C        -2.45079269586430    1.09314156194657    1.31768216665730
H         0.79346816196658    0.93212938941927    1.48971447146112
H        -2.13900777092857    2.63594365925670    5.81020176402701
H         1.25512616883882    4.08035108852380    0.36755088038278
H         1.42769946750098    5.43481189622849    1.50158956226834
H        -0.04550793618133    5.27467216987531    0.54662066781808
H        -1.41571246574277    6.09266479251540    4.30092120193037
H        -1.36127387873750    6.32823535113895    2.54268428666573
H         0.12213367566999    6.45014783348528    3.49408069212213
H        -2.71349740368170   -0.52689429956777    6.85439883955844
H        -1.75312222748983   -1.95950642383644    6.41578779322588
H        -3.23456198859765   -1.58580364319353    5.53629038080234
H        -0.06594865631466   -2.53278085388111    2.91262098089339
H        -1.63305334843354   -2.84632343161994    3.68620441693423
H        -0.15920227941230   -2.81283473169001    4.66018987309439
H         1.44130888596797    2.92964670516729    4.42442303803446
H         1.74378588828285    1.24417996644709    4.09603129060463
H         0.70772948971719    2.97712176862597    8.52820807002891
H        -0.72633337081498    2.20489507785842    7.88273132645438
H        -0.08579764371264    3.63488149744652    7.11052722957087
H         1.78912732934599   -0.47569766182337    7.78193960657789
H         1.34562721581516   -0.86833443447470    6.13368847960189
H         0.10754168170706   -0.44807348046112    7.30253526663513
H         3.37916641411296    1.94258990166147    7.87573277935133
H         3.29619619232059    3.16227923602131    6.62226242404313
H         3.80732751206339    1.53435291429743    6.22725778205034
H        -3.55916375904553    2.67936642470505    3.93135451840171
H        -5.66087961192452    2.59487137864779    2.65393587103202
H        -5.67579705968036    1.49301018220787    0.41099656769592
H        -3.53500394975541    0.51717667400253   -0.43068956362594
H        -1.51806052544233    0.67065331651895    0.97012058750293

