77
CSD_code = BAXMIY | q = 0 | S = 0 | Stoichiometry = C31H32BClN6O3P2Ru | MND = 6
Ru        3.05437753712669    5.27949953594886   14.76239270064181
Cl        2.31528091476754    6.10506835682244   16.84636718301736
P         5.07236988039641    5.30469636102770   15.75020315452523
P         3.35265799469642    7.31016587191746   13.68421364461394
O         5.55638497316297    6.64311676099086   16.56730439373109
O         6.55109984891380    5.11078801131291   15.03826091436694
O         5.40172912285074    4.16720159443371   16.89503625879000
N         3.64959048450624    4.23183171852319   13.10164312967384
N         2.84299332787937    3.30315086567797   12.58471697927900
N         2.56782613111680    3.41745286100432   15.50765993953474
N         1.92286520580798    2.54673596209267   14.72507933863866
N         1.14482875567883    5.22421944008022   14.13224981648596
N         0.67170186281781    4.19340387803657   13.43454035754130
C         6.95027080604398    6.55838010382317   16.81044424277594
C         6.80160951296975    4.11212351072121   17.11113262795358
C         7.37471570819341    5.20858480114768   16.19180700788017
C         8.84251268917717    5.08109707016580   15.85600044660965
C         3.46308306309241    2.68145734422270   11.56885340928791
C         4.71860297706908    3.23212542817887   11.43073003487374
C         4.79207208084468    4.20343617722121   12.43032213903276
C         1.64561807068099    1.43631618280451   15.42498349139444
C         2.12821930790582    1.60217419961196   16.70462194571429
C         2.70006039281858    2.87518074047340   16.70624118502655
C        -0.62627233751730    4.39915948379609   13.15849190809837
C        -0.99408265016041    5.61074511839307   13.70110666521882
C         0.16361254798115    6.09256810135237   14.31296465778758
C         4.85135431752642    7.42018888474865   12.63344732716084
C         6.04321862550449    7.65870692253875   13.31593204959083
C         7.24506196363113    7.70891582391024   12.63859203798923
C         7.27316746532793    7.52529537251447   11.26460313376604
C         6.09195892425650    7.30993632726400   10.57715001252725
C         4.88469253321703    7.25756665632090   11.25448198102310
C         3.53343949146726    8.94885700707756   14.47377719126977
C         3.86364769871726   10.05065781408402   13.68236366488305
C         4.03077418346430   11.29332458734635   14.26010741870985
C         3.87591943166537   11.44908677067250   15.63022250669194
C         3.55014211727850   10.35848553238992   16.41663168054734
C         3.37745122659604    9.10773816352983   15.84429881281274
C         2.00950922253891    7.61109653051716   12.47939063520660
C         1.74070623025112    6.61327074769254   11.54271442246215
C         0.68524656324323    6.74039612161489   10.66078342939905
C        -0.12714731774840    7.86194105605400   10.71074670022309
C         0.12056779303643    8.84819245503722   11.64922884835654
C         1.17946343385007    8.72447794884705   12.53257688651172
B         1.52993727874773    2.93254745212049   13.28859582337655
H         7.14981604815587    6.59931854488944   17.88352950950931
H         7.44997180730633    7.39854865023291   16.31398218037956
H         7.16447896429633    3.11972592421507   16.82003697964385
H         7.02865287195728    4.29304314163807   18.16418187101595
H         9.12807909607120    5.86247956872266   15.15680657200195
H         9.43701274334853    5.17131487410557   16.76125519355438
H         9.03265934733506    4.11597850259849   15.39404506192713
H         2.97888362775018    1.89952150216028   11.02012238462562
H         5.47479835281360    2.97358359266657   10.71873082860902
H         5.60676253743405    4.85277468099927   12.68689426614611
H         1.12794320817712    0.61361007076949   14.97431540085982
H         2.07415656455805    0.91185405060332   17.52092173295259
H         3.18111983726638    3.40429240713584   17.50587287864434
H        -1.19644871168367    3.67993074615965   12.60613205752271
H         0.96031143685258    2.06263623713177   12.72858118283129
H        -1.95498088113296    6.08056407492091   13.66616622763105
H         0.32039995838147    6.99700754402644   14.87272317250977
H         6.00269488633898    7.81917436563266   14.38386541366689
H         8.16376043108415    7.89603305891018   13.17645827715302
H         8.21209803866971    7.55981294763524   10.73169848435678
H         6.10703823191859    7.18263829224025    9.50429543164971
H         3.97183879589149    7.10175126831390   10.69947558718584
H         3.98705333285131    9.92646847230362   12.61418532309054
H         4.28418180120888   12.14383081845155   13.64316636527506
H         4.01074995608721   12.42280675288639   16.07906530967918
H         3.42853013913654   10.47650800158086   17.48310975403715
H         3.12184969592556    8.25437342272982   16.45668878624641
H         2.35451573222372    5.72248887548288   11.52098749008875
H         0.48826991552074    5.95930452274406    9.94055600507922
H        -0.95728333164922    7.95965122674821   10.02691701361191
H        -0.51923222683382    9.71705863123653   11.70137615396584
H         1.35237840133322    9.49125357604963   13.27364496954743

