163
CSD_code = BAXNAS | q = 0 | S = 0 | Stoichiometry = C71H82N7S2Y | MND = 6
Y         5.32922685677485   10.82691174374767    4.73540654555380
S         6.59441033671577   12.54683670465134    6.48272784153120
N         5.32933228164257    6.69332427629977    4.73562948539172
N         6.41719643221440    8.81839015083315    4.55955800996424
N         7.22418670861385   12.11968718883740    4.02978993560904
N         7.17784707301515   16.56565151607374    6.24109372788012
C         5.32932729832903    8.05949325114527    4.73562199143124
C         4.11654549237263    5.89475349534469    4.82980695062555
H         3.25367695417208    6.55453273885546    4.75052070842070
H         4.07763153114536    5.40514945876815    5.81188063474004
C         4.02766117577793    4.85275379733133    3.74504043159473
C         3.88099679901532    3.50954247205370    4.06207450983894
H         3.84386759717942    3.20730416377218    5.09904847099937
C         3.78416832325391    2.55843214931540    3.06091980081814
H         3.67017207865770    1.51631347366760    3.32106314341311
C         3.83728457132847    2.93998331020896    1.73137982332478
H         3.76614119492215    2.19733630064523    0.95055295666365
C         3.97776464215476    4.27895587174463    1.40641888225531
H         4.01375096036337    4.58355563397861    0.37069966929966
C         4.06670185425295    5.22853221863617    2.40767968071302
H         4.16759979354607    6.27287889725770    2.15381034540322
C         7.63540205689831    8.50701303912658    3.93484331216428
C         7.70247598650404    8.26946226136787    2.54791988753765
C         8.94559098884415    8.11491144587901    1.95627213427454
H         9.01556916556598    7.95191138410324    0.89245539872264
C        10.10821106958000    8.17198464688941    2.70283847484785
H        11.06682613907135    8.04384097403898    2.22220062871380
C        10.03934326407094    8.39908794962872    4.06408582891667
H        10.95083993882554    8.44536057646232    4.64182429684604
C         8.81802586481041    8.57379234601048    4.69584255567218
C         6.43651473560951    8.24264416542205    1.71927081153334
H         5.61503090881410    7.91479582867148    2.36512174537800
C         6.51144680862307    7.27784626591357    0.53558094751405
H         5.52655897383094    7.16946241093755    0.08553592357433
H         6.85361999783915    6.29611058995837    0.85696464509116
H         7.18518584379482    7.65027615636974   -0.23170300091509
C         6.10936037595342    9.65754362997816    1.22795093122427
H         5.91819029182120   10.32622071801163    2.07927206484136
H         5.22161963659619    9.64678880996350    0.59741137025241
H         6.94068719610524   10.06383407826538    0.65452817788478
C         8.75839752385983    8.82454584216586    6.18652848091896
H         7.70153922877906    8.89821526465097    6.47861133934915
C         9.40340084385762    7.67668630610599    6.96818648424882
H         8.95847274912437    6.71983881528169    6.70058516760703
H         9.26976187600614    7.83187836684521    8.03696585209017
H        10.47039929573392    7.62302721624350    6.76492553876028
C         9.43120463110521   10.15355344240128    6.53486240203871
H        10.48816369537631   10.13414262410562    6.27613516049342
H         9.33971960951703   10.35870559126620    7.59944969120391
H         8.95205825331773   10.96559989169682    5.99185201704241
C         7.38036490962378   12.95113211283072    5.01737190815455
C         8.18062992243397   14.21819646605520    4.91510235312049
H         7.52471222633439   14.99156946881419    4.50203287851461
H         8.99508002969413   14.05210981435994    4.20142070680617
C         8.73652413510093   14.70106895585927    6.22478151012633
C         9.79510049923244   14.01281881457601    6.79931219946833
H        10.16907425692413   13.12583616275402    6.30821391935136
C        10.38242911258271   14.44817650111743    7.97230822519353
H        11.20466138897629   13.89786649582480    8.40473912394852
C         9.91629563814833   15.60113817129625    8.57717748430925
H        10.37069401024839   15.95974412112209    9.48955772784077
C         8.86075774669814   16.29645316376475    8.01809488487138
H         8.50229400431172   17.18970227852471    8.50727821258816
C         8.24802389643367   15.85638458641364    6.84767651823863
C         5.87049968945006   16.01438494346429    6.54828509662866
H         5.88467639235694   14.93805208379009    6.39837631898904
H         5.12697621764503   16.46277988760369    5.88856294595477
H         5.57494945745893   16.21470369306647    7.58932082735810
C         7.19903400770217   18.00211264535075    6.41713529856813
H         8.21104674570470   18.37210236154208    6.26289701517115
H         6.84130497461934   18.33153270639382    7.40346092809296
H         6.54690431974267   18.44553434467324    5.66175121882664
C         7.91174810633742   12.27789830400700    2.80604997315566
C         7.37646345007866   13.03323338486962    1.76611119000745
H         6.43965370304604   13.55125724246835    1.90875028384976
C         8.03127281965843   13.09030116016781    0.54963860131196
H         7.60657165421150   13.67295709464824   -0.25448565254455
C         9.22008252928342   12.40589325336117    0.35846955114415
H         9.72489216576572   12.45128704802407   -0.59517874703547
C         9.75738340058484   11.66099730239426    1.39522441632761
H        10.68340856069693   11.12298502127783    1.25598918208280
C         9.11159009002244   11.59638408440848    2.61477910874188
H         9.52029360537468   11.00799774606311    3.42245471213079
N         4.24146240828627    8.81837494589514    4.91169821458615
C         6.54211314597375    5.89474490186276    4.64145942108194
H         7.40498743253186    6.55451808780071    4.72074241080777
H         6.58102131284755    5.40513904259425    3.65938718947909
C         6.63098927047791    4.85273812387313    5.72622249891593
C         6.77765027811305    3.50952748247783    5.40918071156669
H         6.81477726964981    3.20729306821403    4.37220544330910
C         6.87448451386993    2.55841056783667    6.41032922681870
H         6.98847738834788    1.51629312054085    6.15017944355655
C         6.82137953901348    2.93995431669973    7.73987216250104
H         6.89252613074038    2.19730245808572    8.52069416507148
C         6.68089908129258    4.27892483877741    8.06484068631311
H         6.64491916264380    4.58351858078337    9.10056192805255
C         6.59195339733831    5.22850713467521    7.06358578057525
H         6.49106697901662    6.27285322686804    7.31746152601089
C         3.02326509026098    8.50699575027456    5.53643124257155
C         2.95619295394534    8.26945193123010    6.92335507394094
C         1.71307190272779    8.11493666369573    7.51500275994881
H         1.64308992223325    7.95193303459542    8.57881853843505
C         0.55045403695277    8.17203890527424    6.76843614389237
H        -0.40816368404901    8.04390756360651    7.24907056706780
C         0.61932495298363    8.39912819150729    5.40718633265162
H        -0.29216787349358    8.44540734792205    4.82944504302690
C         1.84064428677821    8.57380012771791    4.77542957981747
C         4.22215294265186    8.24261055244672    7.75200455062173
H         5.04363871457381    7.91477059468543    7.10615233649515
C         4.14721237238579    7.27778689391788    8.93567114510561
H         5.13209589569370    7.16940607088283    9.38572606408165
H         3.80505665573768    6.29605491708400    8.61425895829952
H         3.47345826789924    7.65019036618525    9.70295388485280
C         4.54931769256856    9.65749817171343    8.24335130775596
H         4.74052158367135   10.32617236404456    7.39204076689734
H         5.43704613541284    9.64672710601103    8.87391077311774
H         3.71798203393103   10.06378892363949    8.81676286645377
C         1.90029394435466    8.82458090204825    3.28474901975580
H         2.95715673756774    8.89821826109234    2.99268014442373
C         1.25528124550246    7.67674127120391    2.50307096948981
H         1.70018660018473    6.71988266998114    2.77067392042085
H         1.38894123158738    7.83193440325104    1.43429459522470
H         0.18828026154232    7.62310330720569    2.70631695652591
C         1.22754033616237   10.15361853756775    2.93641753727884
H         0.17058337259051   10.13422469093600    3.19513216971815
H         1.31901878875540   10.35877767188745    1.87182653554175
H         1.70669079022017   10.96565419805260    3.47943865740656
S         4.06316043512821   12.54544945640543    2.98829841578529
N         3.43464085497979   12.11966315604293    5.44167697296459
N         3.48081721944312   16.56564348881679    3.23011857456525
C         3.27882873557819   12.95122362096221    4.45416979621080
C         2.47822726210888   14.21812878320406    4.55617991336795
H         3.13402330947983   14.99159539502450    4.96912552885703
H         1.66379307060695   14.05203643153301    5.26993726280445
C         1.92216470262728   14.70098214190478    3.24652658915976
C         0.86355563236865   14.01273364150683    2.67203171359718
H         0.48951294787962   13.12582664729966    3.16321317832609
C         0.27618782083948   14.44806629625422    1.49903938407397
H        -0.54609738581007   13.89778277296423    1.06666808858452
C         0.74228188493161   15.60103365155942    0.89414208694458
H         0.28782230558165   15.95964404915719   -0.01820696186224
C         1.79782641254878   16.29637328694792    1.45319366538031
H         2.15626440905741   17.18961478837632    0.96397489540166
C         2.41060574337641   15.85633309360470    2.62360378365958
C         4.78817952100969   16.01447363690940    2.92288595633973
H         4.77402307671183   14.93816332299831    3.07278120067706
H         5.53174594850600   16.46281707339039    3.58261026369134
H         5.08370143680475   16.21473445776147    1.88183381998256
C         3.45965781910183   18.00209189703708    3.05403889221553
H         2.44767061880618   18.37210490327216    3.20832775863401
H         3.81735765282081   18.33145952143749    2.06768132483978
H         4.11186811571246   18.44548388789322    3.80937150998192
C         2.74695316281571   12.27793325901438    6.66531425855228
C         3.28230882031400   13.03312685197079    7.70528725760854
H         4.21912589060912   13.55113909634897    7.56263305982996
C         2.62749656234313   13.09020090648155    8.92174314814459
H         3.05219286687788   13.67287730675680    9.72585024893759
C         1.43864544818280   12.40585190833295    9.11288064594421
H         0.93385519267921   12.45123189295892   10.06654127698821
C         0.90127309110110   11.66106191851397    8.07609190217373
H        -0.02472073226292   11.12299072604509    8.21534843354663
C         1.54701814466405   11.59652260375466    6.85649992838795
H         1.13835692921105   11.00807196900823    6.04885524157347

