117
CSD_code = BAXQEX | q = 0 | S = 0 | Stoichiometry = C49H63NO3Zr | MND = 6
Zr        1.69017356555456    1.54625764053686    3.28460874908060
O        -0.09210751548557    1.82331434884300    3.97559991621453
O         3.43102645444265    2.01119565351010    2.66330306919099
O         0.95202907041109    3.51963948488394    1.82642448326334
N         2.18887830385047    3.68885425602798    4.39728426943671
C         1.16016875101763    0.38611628628825    1.39169458656575
H         0.17478511724812    0.68307361067115    1.00993104002064
H         1.91067040804235    0.53508832427586    0.60382115898563
C         2.19499167089281   -0.19953283189869    4.62708772781496
H         1.26229844622094   -0.61646675196831    5.03218528423816
H         2.71462503088065   -0.94704539616386    4.01564656259867
C         1.12660901842675   -1.02072490284526    1.81215283601821
C         0.00242694750554   -1.55515404346054    2.46291325340442
H        -0.86112122070316   -0.92274330308453    2.62681045459066
C        -0.02383389064503   -2.86727706489052    2.89003407559750
H        -0.90309967730441   -3.25079577663837    3.38959193098805
C         1.06516613575038   -3.69943709416396    2.67873155222233
H         1.04306673723393   -4.72558556257650    3.01435246281655
C         2.17754409161799   -3.19965572366514    2.02128725023893
H         3.02707039895833   -3.84290135093809    1.83691691878065
C         2.20714410697308   -1.88756291741376    1.58969564915208
H         3.07975462545330   -1.52020622932042    1.06492351991873
C         3.06269101503306    0.33057458842319    5.66457764865393
C         4.45476501274018    0.43254511204996    5.46577493800342
H         4.87341063087037    0.08843574734952    4.52704994867703
C         5.28115330389578    0.95544451975652    6.43839604595981
H         6.34466448571136    1.02280000900594    6.25789180546303
C         4.75946484932090    1.39032076160279    7.65048634701391
H         5.40962952508627    1.79356605867854    8.41203823033458
C         3.39581050794206    1.28025378422743    7.87908254689244
H         2.98296195086324    1.59423434036940    8.82823224524135
C         2.56146840241035    0.75670223453436    6.91008213096770
H         1.50181589707428    0.64092260760926    7.11556339385565
C        -0.81671211569822    2.86514294241006    4.34731901462620
C        -2.20983851748546    2.98158681762994    4.10052942337022
C        -2.83564249611586    4.17367835098782    4.41320652971852
H        -3.88305659852135    4.27400611031114    4.18804676842617
C        -2.19632736459742    5.25409753102411    5.01658407374980
C        -0.87208981879291    5.07867379461800    5.37273692731336
H        -0.33746268472492    5.84478115321378    5.91300904993942
C        -0.19212311406341    3.91349025347043    5.05366164465986
C         1.22771181682544    3.72775467166623    5.51260926905989
H         1.49076937096086    4.55204058132051    6.19925726184837
H         1.31812113752512    2.77783579340238    6.06252771916605
C         2.02157444214635    4.87270019684961    3.54481694329170
H         1.81265178161583    5.77499515829428    4.13997874951742
H         2.96617658583390    5.02726870714330    3.00227149566227
C         0.93036694090981    4.67346653395171    2.54830191957453
C        -0.07538953250661    5.48194377699188    2.11267189586042
H        -0.33404780002626    6.44604570064543    2.49796814866860
C        -0.72008014080597    4.78514109661349    1.06075164651582
H        -1.55836232889563    5.12627081793803    0.48909251780247
C        -0.05913369211190    3.60779219677123    0.92688331710546
H        -0.18702030946177    2.79284275943033    0.23949223183878
C         3.55253499983610    3.67290119199083    4.95038674972298
H         3.70402674382272    4.56523108992477    5.58369409970534
H         3.64734364104044    2.79091807094509    5.59184579725020
C         4.62039040376745    3.64949927284266    3.88687722665031
C         5.72985307028304    4.46870678583996    4.03362217975983
H         5.77967276390532    5.09100314687404    4.91356436354094
C         6.74409793462837    4.48752042751530    3.09358777391932
C         6.58728599175131    3.67136744568277    1.97555470103231
H         7.35736064405802    3.69380768990207    1.22406400692584
C         5.49931167040943    2.84230286374597    1.78026132917549
C         4.48558537233472    2.79947654195643    2.77172752527948
C        -2.99523583296829    1.80381985060248    3.53614154840469
C        -2.50986467636839    1.51768980251344    2.11132591814876
H        -3.01092388000220    0.63993399935762    1.70688621782028
H        -1.43685904940985    1.34066006925872    2.12732657529418
H        -2.71946260874118    2.36843538470380    1.46461625680032
C        -2.75305099705744    0.58124929994035    4.43356137930641
H        -3.12560128490033    0.77752672560805    5.43727474704874
H        -1.69113133636315    0.35539315200195    4.49732035010191
H        -3.27255572336184   -0.28852084316015    4.03579302340838
C        -4.50679512871045    2.04970775521706    3.48437696517681
H        -4.90219076093800    2.28163902001530    4.47055027512712
H        -4.99986236903151    1.14706175236481    3.12872959523794
H        -4.75648124773593    2.85587943755063    2.79804323147090
C        -2.97488521306003    6.53205923561584    5.28635565255673
C        -3.53258701592079    7.07253469996616    3.96196092036353
H        -2.72121369288976    7.28364420608457    3.26865390058599
H        -4.08700528936330    7.99267862408678    4.13513111718232
H        -4.20079186108425    6.35641743296424    3.49280152443054
C        -4.13210547757088    6.22742884139925    6.24756045276031
H        -4.68584995065000    7.13687012944486    6.47188750227288
H        -3.74760247149290    5.81725182752094    7.17882775089726
H        -4.82119933301843    5.50608742055516    5.81774108909692
C        -2.10617137328336    7.62466100533105    5.91599630246014
H        -1.26399306878505    7.87360243052436    5.27395523703833
H        -1.73290807418097    7.31490324095156    6.88911434351304
H        -2.70001627742855    8.52558080425723    6.05686786413457
C         7.98425716916818    5.35923563916045    3.21746567984903
C         9.23382843641546    4.46875522627711    3.18246463064407
H        10.13090691506222    5.07380366202254    3.29770083945048
H         9.30797007284123    3.92735877404745    2.24382519353609
H         9.19862166718078    3.74330268932044    3.99215182622664
C         8.02271053555691    6.35117286345418    2.04622724069861
H         7.13286852254152    6.97744202071600    2.05457898030352
H         8.06451147202939    5.83297201247388    1.09236836763737
H         8.89788169467463    6.99298472790484    2.12447715111392
C         8.01018419770716    6.15973535348935    4.52229395762075
H         7.98749569404412    5.49780139537352    5.38460252844160
H         7.16892443137951    6.84675659934821    4.57756850600090
H         8.92554954835026    6.74623542783675    4.57077851539832
C         5.35249153771855    1.99934242660482    0.51921660760044
C         5.23481593496534    0.51944543914695    0.90860453654017
H         6.14604337803713    0.19538289294533    1.40827354424590
H         5.09297705186907   -0.09255883710645    0.01919771209302
H         4.39426877293622    0.36793439530322    1.58479201620215
C         6.53771932245396    2.13418710353833   -0.44300623977617
H         6.65067678313544    3.15747176892576   -0.79433110194292
H         6.36453610315717    1.50086325079347   -1.31109965777026
H         7.46415080257275    1.81175935385005    0.02650963030115
C         4.09013999218599    2.46451255372077   -0.22460206301568
H         3.21768711576265    2.40698992487892    0.42705502490756
H         3.91755545383307    1.84271302885481   -1.10129120795965
H         4.21162043281634    3.49626510718623   -0.55189629033180

