43
CSD_code = BAXROH | q = 0 | S = 0 | Stoichiometry = C10H20N2O10Zn | MND = 6
Zn        8.76842442722851    0.00005497210559    3.65504041485266
O         8.72555178759829    1.16081300650413    5.10264385911439
O         9.66314636832380    1.75191870722455    7.01779003642033
O         9.88407861701287    1.70315069088050    2.58876302529652
N        10.61819897781000   -0.70400363656339    4.59399181772048
C         9.56441126252894    1.01678548050526    6.06171977287329
C        10.49443633687395   -0.22782442199725    5.97602408699136
C        11.77499812187414   -0.07260536854826    3.94999548071372
O        12.99198318740594   -0.50330007299333    4.50564744955544
C        13.11932771795400   -1.89043325253051    4.40341613908734
O        12.06454120039203   -2.55002416723591    5.04090935385511
C        10.83167365908747   -2.14795237194851    4.49739283208743
H         9.82065264895139    1.94187697371087    1.65917250147318
H         9.76149431944674    2.49621337342270    3.12109048426451
H        11.46712524949337    0.02358617299875    6.40747087805187
H        10.04313229157517   -1.00471338399273    6.59712754494394
H        11.73595188331123    1.00608852090598    4.09564399810469
H        11.73236198774978   -0.31181074648037    2.87770895550805
H        13.15650475892373   -2.18817005536321    3.33575954420860
H        14.04022858752514   -2.17474091429733    4.91512964331860
H        10.07220751040243   -2.68707204143044    5.06485902527934
H        10.76726337078182   -2.41863046346987    3.43253314054375
O         8.81123872003470   -1.16103891597746    2.20768833851415
O         7.65293793097044   -1.70321712540020    4.72131204203744
N         6.91873589796436    0.70405081202788    2.71600549038392
C         7.97334874381127   -1.01629315511121    1.24782850307962
H         7.71653121406741   -1.94195969066461    5.65091727148340
H         7.77563693043681   -2.49627631605260    4.18889589582397
C         7.04252827316107    0.22775485518544    1.33400013112618
C         5.76195275535929    0.07264382977952    3.36000816677415
C         6.70529547548789    2.14799946781014    2.81259953701832
O         7.87376530892851   -1.75225149662612    0.29233393134777
H         6.06986269490431   -0.02383084049634    0.90260694055914
H         7.49354064381052    1.00470439375608    0.71286884080093
O         4.54497791030112    0.50333031367218    2.80434126880237
H         5.80098989260471   -1.00605907602875    3.21440795047298
H         5.80460757661643    0.31190792002030    4.43227759205655
O         5.47244666894665    2.55004163583491    2.26902577689177
H         7.46478691739353    2.68704954449316    2.24511718873704
H         6.76972008285367    2.41873026596104    3.87744106516583
C         4.41765537498195    1.89047323604508    2.90652497809546
H         4.38048575941347    2.18825550345514    3.97416800903225
H         3.49676095570105    2.17477783690926    2.39480109753233

