66
CSD_code = BAXWUS | q = 0 | S = 0 | Stoichiometry = C21H39ClN2OSiTi | MND = 9
Ti        0.23129503358400    3.85065748989225   10.28651264014495
Si        0.44782556724859    1.03160691119888    9.70806329139881
O         2.75779890005364    1.14546625507474    7.26792782959324
N         0.65799386302913    2.57622643755033    8.96762531210865
N        -0.45488830694094    5.62880099320550    9.82894945063823
Cl        2.31147899836205    4.70576975516416   10.28175205822278
C        -0.15972796465991    1.90113474258158   11.30255310867034
C        -1.37597192119061    2.65476851599963   11.33903791068536
C        -1.19592853573891    3.78137728402927   12.18549440383978
C         0.14375516036617    3.76768233758699   12.64761701370410
C         0.77531663897392    2.61425196032535   12.11038833935443
C        -2.70850923938470    2.20667544966229   10.81693509537694
C        -2.29600322524335    4.71322012897321   12.60757821134542
C         0.77962979474073    4.69624658548788   13.64282213016864
C         2.15118556142286    2.15443709287838   12.50044970379792
C        -0.82432916934167   -0.06197966269421    8.77701970973892
C         1.95424019281833   -0.11653526482249   10.01009523196591
C         1.15209356959250    2.86844977411371    7.65356198066139
C         2.64147618944693    2.52929807174140    7.49990606039632
C         4.08928856354481    0.70611243690637    7.24467156447860
C        -1.14890925329091    4.80576420046743    9.16049882441487
C        -2.12318149046162    5.08292569132995    8.05305648647211
C        -2.53748071086829    3.80507190580290    7.32727439262597
C        -0.27452062160243    7.08137853178965    9.78230849485328
C         0.37904454359169    7.47512434510360   11.11173809109585
C         0.68078189242351    7.39837009161801    8.62329252613696
C        -1.60210510647479    7.83431070564439    9.62506770912142
H        -2.58577472242406    1.49744668611805   10.00459637839363
H        -3.30324716505191    3.05225830952507   10.47052985972493
H        -3.26946067343626    1.71341291700523   11.61608451134135
H        -1.90359229200692    5.57944864091562   13.13739012645278
H        -2.98890988718450    4.19570493689753   13.27571318594785
H        -2.86735761500238    5.06579366457296   11.74594100297419
H         0.91492799937557    4.18575385759268   14.60028553445849
H         0.16438120022236    5.57701446809715   13.81773633547443
H         1.75976045496759    5.02268680237474   13.29134470818093
H         2.21335669046714    1.07019299118597   12.44643932446298
H         2.37131299524409    2.46156743636365   13.52366054839634
H         2.92086938090398    2.58217285428095   11.85380438951602
H        -1.34336126666486   -0.73750740728175    9.44782182060821
H        -0.30126892987696   -0.66655004209492    8.04460396856021
H        -1.56397733739825    0.52618951312241    8.24353092882789
H         2.14536416009363   -0.70039228382659    9.11707551540206
H         1.76919518025693   -0.80964693571438   10.82537134999034
H         2.85678419512506    0.44025265568091   10.23602497298533
H         0.61429819993499    2.28522564166146    6.88886298358089
H         1.02383432744014    3.94426175857101    7.44196039342324
H         3.07597691661057    3.08844672360459    6.65490981363714
H         3.17376670736346    2.81627874632424    8.41984697624732
H         4.65525367485803    1.19519995626329    6.44077036930570
H         4.06489201651099   -0.36749044201724    7.06702848989051
H         4.59409088716168    0.90800144624562    8.19753548548038
H        -3.01062053612159    5.56291523696230    8.48128491510366
H        -1.67719899440256    5.78109707430036    7.33326205289704
H        -3.20255155647154    4.03662714351274    6.49717984333769
H        -3.05203596053138    3.13206099543697    8.00824931295637
H        -1.65799329690054    3.29392109561378    6.94168897151741
H         0.65772790879586    8.52624285037637   11.10394249972693
H         1.27301481400870    6.87251461613321   11.26798615073419
H        -0.31496670976829    7.30225279715881   11.93269604372447
H         0.88643861506078    8.46592462554432    8.59089988587359
H         0.24960292659390    7.09720643167562    7.66914487824973
H         1.61725048738370    6.85958391882720    8.76862653034398
H        -2.00012902766758    7.74860738988455    8.61797368803923
H        -1.44178097094133    8.88945800440511    9.83541600384442
H        -2.33782172052992    7.45265215808226   10.33138267937044

