73
CSD_code = BAXWAA | q = 0 | S = 0 | Stoichiometry = C36H30N6Ni | MND = 4
Ni        6.31439909380474    2.89624978520921    8.92992507762922
N         7.71803994965505    1.93586038969720    8.02244001888892
N         6.39043838753567    4.27536857800893    7.58494037000869
C         8.15923937505111    3.41854702631750    6.12315843473713
C         9.35520543823802    1.27036463222526    6.54520635053591
H         9.99618119047413    1.31730947469439    5.68589298159315
C         7.20115175676862    4.35390708257095    6.49024956073251
C         9.28110596109618    0.31994099244722    7.50089917702373
H         9.84045367422183   -0.58704730001918    7.61139136161151
C         8.96527348468564    3.64609415378954    4.90071548897803
C         8.37913014953931    2.27398297707859    6.87773232683265
C         5.61354544478758    5.40195797132025    7.54857935830908
C         8.25740123544642    0.74183685714548    8.41941041334395
N         4.68161042578326    5.77330487723347    8.39198416716009
C         6.92999394319198    5.55674588777443    5.74854531361081
H         7.44432739351841    5.83658438247559    4.84930455713732
C         9.26689313648351    3.40616379955682    2.53583162845735
H         8.90793693547268    3.05261984565024    1.57948756205699
C        10.48628004404380    4.06400437728965    2.60524247635964
C         8.49713613175084    3.18968238627582    3.66873131834367
C        10.93203587102047    4.51169665245713    3.84137252364448
H        11.88052257865759    5.02591876000112    3.90781508313666
C        10.18791911887189    4.31208345873879    4.99338463711702
C         5.94494985592579    6.20716428049676    6.40337373087585
H         5.46398020275256    7.13606164396798    6.17202173803585
C         7.18172994862884    2.47626360190380    3.58435255005904
H         6.97531915116397    2.16621753437131    2.56317673608590
H         6.37402700754725    3.12532070399463    3.92203582343395
H         7.18391995247549    1.59445435500949    4.22446515294208
C        11.29923875232674    4.30888607952763    1.37029600750565
H        11.10931658171376    5.31418185592919    0.99265615845982
H        11.04166044985936    3.59939721338003    0.58772060225568
H        12.36262057117795    4.22807805262583    1.58501981657967
C        10.67853872647550    4.79612085848200    6.32430562514373
H         9.95212339813917    5.47056628368824    6.77672090900898
H        11.62471996267439    5.32079726264781    6.21949489550891
H        10.81809579774620    3.95790993934498    7.00670932464007
N         4.91075035148288    3.85663358418379    9.83740474901069
N         6.23834625051269    1.51712519644599   10.27490063136475
C         4.46955416843543    2.37395058283394   11.73668820813747
C         3.27358487665261    4.52212993742716   11.31463788405114
H         2.63261170933020    4.47518681043346   12.17395333478519
C         5.42763664529199    1.43858801238210   11.36959361808890
C         3.34767370825182    5.47254608401420   10.35893885404899
H         2.78831917913634    6.37953055439783   10.24844089427498
C         3.66352595524543    2.14640660955653   12.95913518535972
C         4.24966146600735    3.51851255794940   10.98211311284040
C         7.01523601613557    0.39053343741979   10.31126046229353
C         4.37138285697943    5.05065384031641    9.44043129541364
N         7.94716868249129    0.01918357277009    9.46785501139097
C         5.69879666421154    0.23575029674409   12.11129868057379
H         5.18446938926035   -0.04408335787704   13.01054433036821
C         3.36191194916257    2.38634978229555   15.32401964664165
H         3.72086817321883    2.73990284327193   16.28036090978306
C         2.14252673092448    1.72850475775140   15.25461623215252
C         4.13166487827724    2.60282719341383   14.19111585154956
C         1.69676774841411    1.28080682586236   14.01848948346625
H         0.74828170942813    0.76658208617565   13.95205268940531
C         2.44088133188247    1.48041487311622   12.86647348022166
C         6.68382910497445   -0.41467542232293   11.45646246424828
H         7.16479527823225   -1.34357657839482   11.68781092106913
C         5.44706557359707    3.31625593393544   14.27548779233270
H         5.65348488512314    3.62629288057009   15.29666500301440
H         6.25477100616594    2.66721102911763   13.93778713145113
H         5.44485766601055    4.19807220647272   13.63538499460767
C         1.32957287185268    1.48362522769648   16.48956740416617
H         1.51952149412077    0.47834170853856   16.86722715323102
H         1.58713072031310    2.19313471139696   17.27213097118556
H         0.26618878787168    1.56440010380929   16.27484279532702
C         1.95025696949121    0.99637370812216   11.53555607502307
H         2.67667655292777    0.32193785284599   11.08313338243710
H         1.00408120890336    0.47168730429761   11.64037266658636
H         1.81068636097806    1.83458653972318   10.85315744231576

