48
CSD_code = BAXZOR | q = 0 | S = 0 | Stoichiometry = C20H22CrN2O3 | MND = 9
Cr       -0.83321194276161    5.98465769693035    4.78501134899989
O        -0.91892093188030    6.89622473625464    1.95510857615876
O        -3.57880172477566    5.06338929364802    4.09199548244417
O        -0.15297997806186    3.50483408137483    3.28943827728462
N        -2.70265531037035    6.58354374589965    7.64225297604776
N         3.36235641373317    6.25889103043685    5.69190187510278
C        -1.50609236037496    6.64127585619883    6.96871685428624
C        -1.14539010709245    7.77571917107760    6.19728174393917
H        -1.79571265272069    8.63769214489233    6.15540558006724
C         0.09745013811045    7.85838912137753    5.56148489104883
H         0.36459431296587    8.78748507545905    5.06957860240258
C         1.05506514593411    6.83152266484888    5.68214231055791
C         0.69010645173226    5.69533878764595    6.42734908436791
H         1.43429978107722    4.92223699149235    6.57752364930514
C        -0.55457344142144    5.59390669875253    7.05335684378848
H        -0.74529958039414    4.72959377770493    7.67231778835790
C         2.38235920619844    6.90934480649406    5.06599080337019
C         2.58546879702061    7.60103711219498    3.86927906322322
H         1.74132159250547    8.06262720201386    3.38492347231195
C         3.84688819173646    7.63364325295788    3.29536845517828
C         4.86312371935738    6.96156694240363    3.97759203952351
H         5.87257390818109    6.94001634532531    3.59926063875757
C         4.56598665091052    6.29486528633058    5.15192924083261
H         5.33237673509120    5.75555601017088    5.69428957115415
C         4.13992740651328    8.33424224850847    1.98162953079609
C         2.90641977650860    9.02951630570881    1.40012144160632
H         3.17319773259913    9.51287087931323    0.46269430272312
H         2.53273320531551    9.79544672723947    2.07658850136229
H         2.11225280306029    8.31567746995143    1.19435063040531
C         5.23108455692653    9.38977270358018    2.21020984051724
H         5.44246662704983    9.91317611637623    1.28044216350412
H         6.15448828649563    8.93817955740819    2.56253844222771
H         4.90370444579274   10.11896844423033    2.94898722283833
C         4.62795995845702    7.28751221928619    0.97066655873490
H         3.86447477846306    6.52729359338741    0.81987782405411
H         5.53573536052774    6.79796301438320    1.31340107670801
H         4.83618279054208    7.76234577824594    0.01446918546013
C        -3.15399856147119    5.29117009671161    8.11787232031252
H        -3.22075641852150    4.55824877500685    7.30468723523813
H        -4.13705973014490    5.40155106132583    8.56829743852014
H        -2.47992666284442    4.91489591582316    8.88796521504254
C        -3.75169582067767    7.50286375133498    7.24906089259546
H        -3.45909079314412    8.52940891343954    7.47238901172185
H        -4.64842355180600    7.28599125725901    7.82369096780800
H        -3.98976452063296    7.41772291434731    6.18190670239486
C        -0.88669788667207    6.58393406265484    3.07008348242020
C        -2.52240100602823    5.43058935073695    4.39810881208871
C        -0.38914579096932    4.44800101184880    3.91536203237711

