61
CSD_code = BAXZOP | q = 0 | S = 0 | Stoichiometry = C26H29NO4Ru | MND = 7
Ru        9.72211994614600    8.95020483186559   16.34547721778855
O        10.69798284332210    7.56610394681628   17.54754039121239
O         8.93737317306297    9.97158489813822   17.98710987178625
O         8.21376603302489    7.55207406732691   16.50790961605681
O        10.63075560811237    7.93453163423808   14.77664725665550
N         8.41603733755201   10.12530919255974   14.98493958891673
C        10.62260687452495    7.59735200010437   18.79969776953806
C        11.36306082228026    6.49155650399183   19.53295119702060
C         9.97290827632457    8.54350490956104   19.59698865146828
C         9.20582422121498    9.63047055312869   19.16719694878191
C         8.60777500849142   10.50049326676500   20.26171936598003
C         8.32895929871905    6.41083917018954   15.98192327199953
C         7.27700708812893    5.39175183129991   16.38780695456810
C         9.28248360342494    5.98719800763291   15.05554574256587
C        10.34501530798798    6.73738081813547   14.53083034135441
C        11.23660456982397    6.02608083318347   13.52691425600307
C         7.14634318715086   10.33323663728673   15.68825823250420
C         8.18625208438234    9.32471071463822   13.77896730988237
C         8.98079826702456   11.40666993690060   14.60611408695629
C         8.32625825541939   12.32000608610274   13.79523734551344
C         8.93181909161700   13.52615796543790   13.48038364796598
C        10.19245772705646   13.82900526843761   13.97223139271713
C        10.85703953071678   12.92906333598467   14.78148311207111
C        10.25389757148865   11.71185962961292   15.10061337565492
C        10.86330536806185   10.73756104678424   15.93709728564512
C        11.63444953637717   10.09984614565824   16.67028089000765
C        12.70121865142741    9.64088196797725   17.48859130705065
C        13.44446797480213    8.52037674086948   17.10880418133777
C        14.45250635323648    8.05214211783809   17.92751159345941
C        14.72939088769257    8.68570885842364   19.12951601566220
C        13.99352681258677    9.79649624522274   19.51114301844394
C        12.98336956604935   10.27602535554687   18.70008622616359
H        11.72210303134929    5.75888246293288   18.81490805704522
H        10.71152210387694    6.00861998028188   20.25660110974974
H        12.21460477089293    6.91803588364197   20.05993517127698
H        10.05968302781015    8.40985828231680   20.66563617952849
H         7.87485086638412    9.92969002057838   20.82769172042195
H         9.38464380963142   10.83408418203070   20.94504657085144
H         8.11992066478389   11.36370193595316   19.81615665564760
H         6.78822677355981    4.97407632470282   15.51018279286733
H         7.74994153828403    4.58004965589278   16.93668315231763
H         6.53780385066563    5.86773677580152   17.02760735639986
H         9.20939363379516    4.96073749590737   14.72603985853956
H        11.98546411230304    6.71884829696092   13.15137239475551
H        10.64546752757486    5.64475006366980   12.69735849971176
H        11.73410106262005    5.18673213199804   14.00741671804060
H         6.38852371777525   10.77907726430494   15.03356484654079
H         7.31822397484983   10.98616444422817   16.54285504684244
H         6.78396440369169    9.37292603220210   16.05517883966163
H         7.80331564794346    8.34389659030255   14.06225253871409
H         9.12944632624426    9.19738882103642   13.24617072316158
H         7.46065028849532    9.80335186644800   13.10996203421711
H         7.34245806779813   12.10820787469150   13.40261507825449
H         8.41508877863826   14.23284671761949   12.84852770768876
H        10.65492059676460   14.77193124416000   13.72169393915216
H        11.83829343184178   13.15024658515622   15.17298374270895
H        13.20266128360118    8.02538327732420   16.17977619010560
H        15.02325241931903    7.18287479703107   17.63372630691981
H        15.51417333159570    8.31118307755464   19.77078730887071
H        14.20591093049920   10.28794226451340   20.44991051683484
H        12.39630915025341   11.13279113303595   18.99804148042612

