45
CSD_code = BAYHUF | q = 0 | S = 0 | Stoichiometry = C11H27FeN3S2Si | MND = 5
Fe        2.56412346886803    1.51069086696679    2.85460107087511
S         3.13301665934722    1.92217750117007    0.59963979149245
S         3.07210005416035    3.76615472489814    3.35193349226033
Si        2.11184731082649    3.51892274550984    1.50048738271609
N         4.37955719416619    0.85244178340345    3.27326419749967
N         2.03483872720384   -0.40353782760617    2.48407818444545
N         2.07956343545406    1.16048476565567    4.77098932532312
C         1.82591532156058    5.06722152552142    0.45830274497724
C         0.49459772770365    2.65913469284301    2.05243909052801
C         5.43377477467595    1.78116866803425    2.88991607912517
C         4.47459626850695   -0.34672233027839    2.44712666323406
C         3.24237892231002   -1.22584913315122    2.60864211293396
C         1.42170841801250   -0.60188791122541    1.18041176536097
C         1.05871602360853   -0.67973925983998    3.53346870332844
C         1.56704869006967   -0.20524819768792    4.89059643947118
C         1.11077572609740    2.11631167880685    5.28434120572962
C         3.36539307690295    1.34551979365885    5.43592903650513
C         4.45612382123031    0.56962665499511    4.70943605210999
H         2.77668360685558    5.51502943606326    0.20148892619571
H         1.30582687819142    4.81960671337035   -0.45829036586242
H         1.24170746390460    5.79517449295038    1.00674914986143
H        -0.12412943608323    3.27409171029965    2.69627413166697
H        -0.10728867851620    2.29375207244830    1.22730226459248
H         0.83691958563178    1.79279244967313    2.63974820341043
H         6.42236287262442    1.32433670851936    2.99678126821399
H         5.27463270769146    2.07452224034031    1.85604219739506
H         5.36207800056014    2.67018772285032    3.50668921339908
H         4.51173601618986    0.00407958251607    1.41707794930334
H         5.38535257058975   -0.91890308553234    2.67020421903643
H         3.24801017374002   -1.72851940204302    3.57646850697336
H         3.25818514908607   -2.00431443944550    1.84043142007042
H         0.58516516060369    0.08071009182632    1.06616874440643
H         2.15098401279462   -0.35887702297498    0.41420520278199
H         1.06659495790567   -1.63079951503261    1.05403741202618
H         0.15224183761618   -0.12559765663197    3.28481862258003
H         0.80090016955800   -1.74849849862003    3.57415548476454
H         2.35519621359405   -0.86534378608014    5.25052772327774
H         0.75076451317710   -0.25471804157931    5.61942551064446
H         1.44973057637242    3.11584873483197    5.01722529774686
H         0.14242088128374    1.93696424913486    4.82541574299120
H         1.00958962172819    2.04246405093753    6.37223919655257
H         3.59130903384123    2.40779838110770    5.35872676236483
H         3.31932580636493    1.05607669242628    6.49501824370748
H         4.35372784156267   -0.50227858221938    4.88212924619340
H         5.42859684208704    0.86944395933271    5.10913638787101

