75
CSD_code = BAYKOD | q = 0 | S = 0 | Stoichiometry = C32H36Cl2FeN4 | MND = 6
Fe        7.34704655022113    6.82436406002042    4.49217312752364
Cl        7.93326910529080    7.61064394473693    2.49696287454418
Cl        8.31349643576159    8.49735635731535    5.51492145189932
N         6.46464412569100    4.92831678421615    3.87291398803928
C         4.75783274745993    3.25402742205013    4.69911464015226
H         4.50253566729032    3.01171133978070    3.66961148474364
H         5.50264966270015    2.52937377564564    5.03564793457153
C         5.74036637854369    4.91887500182175    6.25509581408881
H         6.38569079002681    4.08618194142447    6.54163369245819
N         6.55113407688448    6.13458389671387    6.46555786662206
N         5.66053074114847    7.73088925211458    4.42130758320840
C         5.33881998069293    4.67752900554733    4.78348434940251
H         4.55226268823706    5.38753349125775    4.50766658114276
C         7.53969421910547    3.94552992231153    4.03238605512088
H         7.39701083119522    3.07915951424284    3.37813980315281
H         7.54737785135493    3.58900656906596    5.06448938158377
C         6.07442610730062    5.10460228945161    2.46094368482997
H         6.94999680993312    5.52436913746275    1.95724736819973
H         5.29746040737285    5.87137842642646    2.44615083516340
C         3.05859662592518    8.75059957125713    4.51967406931060
H         2.05220598608571    9.13695319630821    4.55970587617136
N         8.99811064254284    5.83384836632356    4.26418253551434
C         3.68054738237039    8.26332669488336    5.66064426848797
H         3.17538688286653    8.27411035542035    6.61493238606492
C         4.97242088989950    7.77761977824895    5.57534072648989
C         8.54387315749468    4.91544645732896    7.41193402781727
C         8.87794338169240    4.58081977557102    3.80482332664118
C         9.92029199149958    3.89991159045028    3.20253434373783
H         9.76665009432997    2.89028312905361    2.85180556766801
C         5.06518389419422    8.23089837265977    3.33146526215439
H         5.66678468896744    8.23471224158143    2.43532088372828
C         4.48089378139383    4.82193420774566    7.13086500342633
H         4.73665879313386    5.02215058787378    8.17373673104983
H         3.74050911863577    5.55631373824035    6.80837394088144
C         5.59805529149052    3.91338362962540    1.67047890262871
C         9.78753391514102    5.30313211985663    6.92841733415203
H         9.95941968217465    6.34695110761165    6.71935361399427
C        11.14724667658196    4.52729222361163    3.05292084575274
H        11.97335316939906    4.02002618343885    2.57923808672604
C         6.50503392487136    3.05761384992570    1.05406155708993
H         7.56427096067219    3.25682465387057    1.13176328888207
C         4.23794423964654    3.69262146094561    1.46980615374652
H         3.51867392818556    4.37628989034388    1.90053930144914
C        10.79049714825219    4.37066264048262    6.73308472976973
H        11.75077699592225    4.68669293887867    6.35420191321610
C         3.51627359737179    3.12539197715014    5.57546588889447
H         2.74964889640502    3.82264168955981    5.22982861130932
H         3.11127608272825    2.11551047466243    5.49026403969563
C         7.48164729023177    5.96049906333087    7.60286459680916
H         6.90839032340813    5.74182285696505    8.51635244586135
H         7.98562014917135    6.92077174349640    7.72371480035790
C        11.27059625061546    5.82718574769592    3.51728089153948
H        12.19584009998494    6.37105563562928    3.41570239491798
C         3.79535351310713    2.61987588460375    0.71683898346288
H         2.73626294567708    2.46600066041404    0.57082811547596
C         5.74870295147824    7.32904244375849    6.76625285497514
H         6.46573532634573    8.13231727903450    6.97394836177281
H         5.11064659794885    7.20064940647116    7.64723697072731
C        10.18088025994946    6.43692769579070    4.10428178938603
H        10.23816567488026    7.45371472698432    4.46233023697506
C         3.78237606529683    8.74186362553661    3.33649089842192
H         3.36244123227149    9.13221119404582    2.42332363361250
C         3.86518570964237    3.43015305651293    7.02618980024905
H         4.57188007038125    2.68301792228578    7.39576251242242
H         2.97000400644249    3.37722691581896    7.64863648571854
C         8.34768621621107    3.58234541157434    7.75995389811094
H         7.42026369705699    3.26826964300469    8.22197234758836
C         9.34803823983574    2.64665287240046    7.55676599367762
H         9.17870625122893    1.61355394368133    7.82429070495336
C         6.06431422947259    1.97765651017028    0.30808353258389
H         6.78223943518234    1.32031900786697   -0.16008179313515
C         4.70884229671691    1.74980999035670    0.14571128618334
H         4.36508080494957    0.91061464724148   -0.44021984694049
C        10.56591347019192    3.03645111676125    7.02693592395804
H        11.34447989623650    2.30529596405153    6.86794044743839

