50
CSD_code = BAYLOE | q = 0 | S = 0 | Stoichiometry = C17H21Cl2N5O2RuS2 | MND = 6
Ru        1.14178780092297    1.46024649134244    9.40448019883912
Cl       -0.31533129240735   -0.32994572683620    9.09496337094051
Cl       -0.50708039232631    2.86181963262139   10.31576923824876
N         2.35938030900853    2.95257823232646    9.69908704598901
N         2.78789831019391    3.93365242967804    8.91800174811010
H         2.42244688975780    3.97561033160099    7.95684157901102
N         4.13887753274579    5.90055805230327    9.18223377107391
N         2.61530157577282    1.98805894683387   13.19426445457375
H         3.05988172647283    2.65960681420376   13.79643307826981
N         1.70065875554052    1.11389672327103   11.36788233033567
C         3.54504727861763    4.80549099350173    9.62744365733460
C         4.82802705536438    6.57515320057269   10.08159710452673
H         5.30776559165978    7.47141842436412    9.71442236663896
C         4.96144070982198    6.20223468287160   11.42352378193050
H         5.54658195874396    6.81794573034379   12.08792111495944
C         4.34870858927659    5.05615902081008   11.89132932148476
H         4.44116011960869    4.75031149528216   12.92332459918069
C         3.60840247688411    4.31976679598795   10.96920227767035
C         2.82503394036638    3.13640216357437   10.94359200407764
C         2.40588239996683    2.12830326039611   11.85914318138520
C         1.97215559139789    0.83565179056112   13.58851649083922
C         1.83706736114424    0.21279361948595   14.81818388722628
H         2.27326153647623    0.63053038584687   15.71232955814400
C         1.10953901889209   -0.96155615663956   14.84784365915414
H         0.97689973351499   -1.47380580152872   15.78860452193859
C         0.53209933481706   -1.49940903112278   13.69481253662449
H        -0.03646051005922   -2.41303499611303   13.77479076558890
C         0.66358718868792   -0.89057816211792   12.46454598519160
H         0.20275238353684   -1.27912902626440   11.56954442262626
C         1.39605430531098    0.29133274716872   12.41779887935625
S         2.78241427369182    0.12905812451514    8.57119804334028
O         3.39034979817353    0.68730020880174    7.37240097181942
C         2.47122931192837   -1.63149657221639    8.23639193144154
H         1.63101935847442   -1.69915838549369    7.55451621334041
H         2.20944385068621   -2.10522186743967    9.17439940299216
H         3.36493704684794   -2.05671499587199    7.79504193245237
C         4.15523805758556   -0.12680635415859    9.75590478257737
H         4.54810341387596    0.84983992575815   10.02212361411302
H         4.92695472348676   -0.71556078885856    9.27372585655597
H         3.75835502834375   -0.63178269459658   10.62974163977691
S         0.48592837929188    2.12454612538826    7.34112042390754
O         1.20116476815687    3.30471743505832    6.85132877854726
C        -1.28068683245729    2.49571575469625    7.21112294181394
H        -1.49697785281261    3.29564639238956    7.91306190804142
H        -1.81745256633639    1.59759522904597    7.49964912334454
H        -1.50326744742814    2.79747581922375    6.19445250006984
C         0.57250963529288    0.89294618806700    6.01058039221472
H         1.61918131055154    0.64012464291509    5.87462116638700
H         0.16973798042620    1.33475529912792    5.10684668119506
H        -0.00560951750877    0.03155744931951    6.32874476479697

