25
CSD_code = BAYNEW | q = -1 | S = 0 | Stoichiometry = C6H8CoN2O8(1-) | MND = 6
Co        4.86590529658683    5.54294652034063   19.78349312402494
O         6.48747295876356    5.74580560829925   18.90651915518470
O         4.09041323775931    5.80765678900839   18.10488566467794
O         4.61421494722836    6.13375445264802   15.97194507531684
O         7.35248197140938    6.08546807120023   16.88734458009426
O         5.56760846363977    5.18414029093516   21.47694084606728
O         4.83722691674797    7.31494555119149   20.32978749867531
O         6.12573357514756    6.17798561203960   23.38249888407427
O         5.30319889676800    8.61549862056540   22.07095243252940
N         4.83883043776622    3.55535794674398   19.39514251440874
H         5.23385105677313    3.30406866906557   18.49251459032616
H         5.44262756764716    3.18246543657455   20.12633352485535
N         3.02631075397808    5.21200066793302   20.56042602376409
H         2.83573086748326    5.73118465120041   21.41369491541618
H         2.41358679482844    5.56316512340124   19.82580519683787
C         6.40051538315489    5.98337959711991   17.63921555034190
C         4.92634045741491    6.01627477949278   17.14352552220522
C         5.74371085002065    6.22022340074255   22.22668393194656
C         5.29627943235236    7.53086458146027   21.51840520945731
C         3.46962229838685    3.07070591950688   19.54051541315675
H         3.42075128081106    1.97985157804666   19.66446758686577
H         2.91692502274470    3.35451622032564   18.64108128691604
C         2.85462293810146    3.77509949233916   20.75099631147038
H         1.79985998767520    3.48937960769745   20.86771010869476
H         3.40567860681087    3.48906081212169   21.65071505269181

