86
CSD_code = BAYPID | q = 1 | S = 0 | Stoichiometry = C38H33N6O8Ru(1+) | MND = 6
Ru        1.26609963582765    5.85744046449881    5.77404939092774
O        -1.42190235579597    7.98476748652045   11.80357995479938
O        -2.92025518110715    1.88909744383324    1.94689655006631
O         2.66438583463177   -0.48122121647702    8.38733949679678
O         2.47928969283527    3.63940350221386   -0.64092500477142
O         1.80015162390283    0.58519961990566   10.16638314661960
O        -0.80025755677987    5.90500288797909   12.38535018702920
O        -4.35309714635689    2.18468460397300    3.65247744459202
N         0.31134568045634    8.53172316550447    4.25505562483734
N         2.14629523931382    8.58118733377424    5.37148891163069
N        -0.37575016062707    4.96557628275268    4.89493299454440
N         1.60968115883218    4.11469361264959    6.67883653712380
N         0.47997267806081    6.25733249661333    7.53995682543340
N         2.03132811954479    5.35335469298298    4.00788615678746
O         4.47406277981534    4.62348818736465   -0.32190019689060
C         1.97354038990078    1.77873001912143    8.15475179011519
C         1.21407507027383    4.04620671353042    7.97134989511715
C         1.60072360237966    4.33649966718526    1.87041265489520
H         0.92636965450527    3.82736366204012    1.20279389982235
C         1.20527712085210    4.68747911090065    3.15759854960532
C         2.18273743753510    3.03797791888283    6.13376799382086
H         2.50479943307991    3.12459902076559    5.10311151870971
C        -0.11592336126690    4.37951823593804    3.70365288176454
C         1.10853808614427    7.77805902590087    5.03810341551276
C         3.26785740292978    5.64708937567062    3.57967371006144
H         3.90757287109127    6.15796091752378    4.28872206037421
C        -0.43409676241712    6.63745004213930   10.15829598698241
C         2.87966905006035    4.65537490281418    1.43668371080257
C        -2.25411208538709    3.29200066274528    3.70698115507678
C         2.19059364932131    0.50148941054965    8.89633067302799
C         1.38145673255512    2.89246084633972    8.73272716069407
H         1.06019609643597    2.85131953993952    9.75951457074412
C        -0.89622552364450    6.78423206139454   11.56728596675122
C        -1.54963908962246    4.72306570707198    5.48547560795270
H        -1.72458599405655    5.22133854320112    6.43188460958161
C         0.15340358319756    5.43927364981672    9.77470275605394
H         0.25604698600349    4.66101740758784   10.51359913914480
C         0.59625387614566    5.27111485280817    8.46905206440498
C         3.97565283137491    6.13665635841830    7.31951234523456
H         3.90881565218321    5.09522258528505    7.61184412093836
C         3.16733440612387    8.05714653397345    6.19085567613009
C         2.00334235737739    9.81671061156447    4.80658210411367
H         2.70631083786062   10.61250701181182    4.93419428791573
C         2.38212591364129    1.86101038420803    6.82170126099299
H         2.84869494974788    1.00785834247807    6.35587448632038
C        -2.51069353953515    3.90218413018048    4.93779812929491
H        -3.45041435088631    3.72144347385684    5.43427263362483
C         5.06944627809894    6.87121022256002    7.75943808703572
H         5.81740348528460    6.39729533804171    8.37710277397986
C         2.98997769359444    6.70383223302923    6.51999129940431
C        -0.09778014412540    7.40597582393348    7.92273218127699
H        -0.18758395480521    8.17196628463071    7.16235475695831
C        -1.03700382411459    3.53714442691997    3.08638088319177
H        -0.81703066750278    3.06270425845946    2.14524594541972
C        -0.92026711163611    8.11517760230629    3.64186777293703
H        -0.79604242339387    8.01668335740672    2.56126836250163
H        -1.70307486729732    8.84934976306097    3.83594580577941
H        -1.22065701719230    7.15454545424585    4.05653454160854
C         3.38009466177496    4.31614283111117    0.07401062559278
C        -0.56389074867381    7.64216712630208    9.19711607164565
H        -1.01795534240742    8.58509013394708    9.45192236647661
C        -3.29688044894929    2.40242390745872    3.11798466546138
C         3.72919292866906    5.32248324901701    2.32387753706616
H         4.73023883294893    5.57309671057094    2.01151844839870
C         5.20667306123264    8.20357821688269    7.41394836980175
H         6.05612160509541    8.77145699595797    7.75917651424453
C         4.24790719313958    8.81031788060338    6.62056950487899
H         4.34771380240055    9.85006087953118    6.34953926353560
C        -1.88740282360897    8.21186833478949   13.13002384902019
H        -2.67019719294269    7.49480742528186   13.38346591775422
H        -2.27628341523540    9.22618444308733   13.14540636310608
H        -1.06723755803899    8.10270776631563   13.84164538560480
C         0.84712274769427    9.78539133284934    4.10102303020065
H         0.37059927398481   10.54237679070657    3.51351589379667
C        -3.85972953132708    1.02363315502539    1.31638733943800
H        -3.39676478873161    0.69705353862422    0.38939933527870
H        -4.78967150335635    1.55837182904986    1.11585248097140
H        -4.07747098877860    0.16993557756641    1.96032207002826
C         2.88198516110399    3.27052920310623   -1.95650817787498
H         3.10995873259739    4.16083685899331   -2.54500348639840
H         2.04600530640161    2.72789026129953   -2.38900980710484
H         3.77152558412747    2.63970911845446   -1.91580338793119
C         1.97482079520184   -0.58893758389778   10.95333604279913
H         1.40166936406371   -1.41564144445466   10.53009419415468
H         1.61579888787978   -0.34223752978086   11.94860451074365
H         3.02882163036461   -0.87037306272798   10.98210783410105

