25
CSD_code = BAYPEY | q = -1 | S = 0 | Stoichiometry = C6H8CoN2O8(1-) | MND = 6
Co        2.27809296295171    7.76887538666101    8.80085673437778
O         0.47447450322833    8.18091008411367    8.92982494501914
O         2.56825788500157    9.57998075161383    9.15463542595047
O         2.35954176768353    7.17862535804095   10.55699715808506
O         2.06875297212936    5.96689147809941    8.35783525759079
N         4.27389739029696    7.52015778682182    8.56068491091769
O         2.29389626020475    5.32627674842196   11.78381247699777
O         1.97937876544907    3.94350889638959    9.26801216595337
N         2.30225175253767    8.23021223270461    6.83007938708576
C         2.21559950995095    5.90406934086543   10.71519007850002
C         2.04095876189391    5.15642753587056    9.36235576968062
C         4.56817399490464    7.45869791258394    7.13231498779985
H         4.30340081164333    6.45878002053178    6.77868400785443
H         5.62793292377169    7.64980841721046    6.91292665059327
C         3.68212242092091    8.49006119220102    6.43171550897108
H         3.94861433434342    9.49027225698812    6.78322477400522
H         3.82186702085778    8.44112322994133    5.34273098102300
O        -0.90894300494563    9.88645392112537    9.27320117119850
O         1.48422606078679   11.48544616870779    9.50683693309743
C         1.49877701897211   10.27892570903131    9.33931495321154
C         0.21169774110491    9.41559564705759    9.20695714557919
H         4.64707601236730    8.37147407709355    8.97826118113610
H         4.65794101940185    6.72195503382599    9.05985106391978
H         1.68509178121593    8.99702649140895    6.57500726560813
H         1.94841933332722    7.37594432268997    6.40178906584402

