53
CSD_code = BAYPUP | q = 0 | S = 0 | Stoichiometry = C24H25IN2Ru | MND = 9
I         2.97033084886893    4.00141119295519    6.28124820190867
Ru        2.00861740925754    6.01436546288860    4.76183619225237
N         3.65191036287294    5.19513925181674    2.49372763793441
N         4.92238812875908    6.35395925001615    3.84396840293226
C         2.18169580700631    3.70241393382670    1.15085452215573
H         2.89353495643806    3.58714311173601    0.35025401256533
C         2.45746587749517    4.49281318791641    2.25320058728577
C         4.89357533213707    5.24244456032319    1.89675925208873
C         1.53977653451656    4.66059585211653    3.30261142876261
C         5.70772259886221    5.99110640265006    2.77155982877031
C         3.66795561524851    5.88127910776650    3.67104768013836
C         5.42002676941686    4.74609916827751    0.71312753563488
H         4.82897245268952    4.17158012993459    0.02081305964067
C         5.41503990333057    7.00483553808935    5.02563012852136
H         4.67013480629059    6.90648274004348    5.81581271751216
H         5.61601133257679    8.06265699496350    4.83830645871851
H         6.33500067477253    6.52004085180389    5.35462572160630
C         2.12321314845351    8.25579215125093    5.05743201526856
H         2.90291076771263    8.98863320920832    4.86632441527068
C         6.74987547751595    5.01007630396751    0.43814547600648
H         7.18007810255954    4.63226655782027   -0.47671219411225
C         1.95674374044561    7.74460093306483    6.34893245440254
H         2.61359342468721    8.05630792636456    7.15405082830642
C         7.03802266140662    6.25200520219261    2.49021292383782
H         7.65339397241385    6.82465340612212    3.16603081662923
C         0.96433704075516    3.04388994194881    1.09230614904408
H         0.73444115584131    2.42405247130867    0.23870067351406
C         1.20364236311226    7.94528369682258    4.01267126346504
C         1.29846831849547    8.68070647408748    2.69495238990050
H         2.33378853919856    9.02578875926529    2.57192128404740
C         0.12092641133198    7.08931465205443    4.31852194110121
H        -0.64476651167163    6.90543499647928    3.57286746449363
C         0.89774034623392    6.84312445237821    6.62322600608046
C        -0.04062757764699    6.55174883193016    5.61301951235568
H        -0.92192462740458    5.96598669718463    5.85315056506781
C         0.68791656462501    6.33957389363418    8.02132524840188
H         1.63726494356811    6.18685620211250    8.53176438905676
H         0.14627201806098    5.39558984798693    8.02068268042060
H         0.10716608763902    7.07072071924073    8.58798373173099
C         0.34650757663697    3.96214462456952    3.22676107276783
H        -0.37125238385181    4.01826051311485    4.03609879624067
C         0.05666530986073    3.16429942196755    2.12892925441003
H        -0.88239553122093    2.63141569206977    2.08712744920976
C         7.54692588950363    5.74769158131122    1.30756762471371
H         8.58002789497212    5.92895949537382    1.05399567400386
C         0.94612578825742    7.80809334046727    1.49004414765696
H         1.18750390451719    8.33487586279130    0.56958156243222
H         1.50646212130726    6.87482166775370    1.51320071624854
H        -0.11475383824824    7.56971874091374    1.47146369022867
C         0.38603584008893    9.91215656859339    2.75327551950077
H         0.46572128709863   10.48270977075601    1.83093480000152
H        -0.65152722917491    9.60958164478941    2.88283581744726
H         0.66181759239145   10.55879701198897    3.58469047243089

