46
CSD_code = BAYPEZ | q = 0 | S = 0 | Stoichiometry = C19H22IN3Ru | MND = 9
I         7.27176594851422    3.90993465938701    3.41311079029941
Ru        6.79198125514956    6.12539434006825    4.87899147161624
N         3.94806396078359    5.60453935407854    4.68484420144396
N         4.42223606578328    6.59475071220527    2.86274520761594
C         4.98009915661211    6.16790521273650    4.02791296754811
C         5.63257537789167    4.97883132199021    6.13653988563216
N         2.79154405409638    5.67132683710241    4.01174316362421
C         3.09740819718393    6.27310302613261    2.90751160130088
H         2.40033332989189    6.49106888255138    2.12491457173264
C         8.80859510849437    6.44271154340943    5.89862083022531
H         9.50778011084176    5.77165904450098    6.38767156591897
C         6.92589728518053    8.01430113572483    6.04607158120080
C         5.12644107497480    7.18477401522060    1.75955539634325
H         5.22671658192688    8.26483366956229    1.89200364501107
H         4.58666371448631    6.98814872402065    0.83482466441855
H         6.11907850592401    6.73489604596765    1.69567102376813
C         6.06786854884118    4.28376402072064    7.25455102735561
H         7.12344527978070    4.23387966450499    7.49255656441259
C         6.73902105531358    9.95469800689905    7.56740294008779
H         6.05850794506814   10.59859197457748    8.11965993774277
H         7.28241405448857   10.56365012402366    6.84617838921726
H         7.45571345198849    9.52948173077466    8.26755734192762
C         7.11567696901112    8.30259171519116    4.66451352763179
H         6.51493637908297    9.08843815638868    4.21030245621456
C         8.18043798695188    7.74064035461665    3.93134175979233
H         8.38269521567997    8.06976006127856    2.91807928883187
C         3.33674883718155    4.27566924401250    6.66690832972186
H         2.29208542826128    4.27384675350118    6.39800252536941
C         5.95665349517264    8.84109023996415    6.85961365055876
H         5.24408343421516    9.30897002943039    6.16753709026042
C         4.25592777138453    4.93371044164046    5.86955384470732
C         5.16465731623549    3.62235329674618    8.07585648920908
H         5.52799485143994    3.09357411704435    8.94555240945720
C        10.16865282527161    6.19161960915370    3.78512394349805
H        11.06210735615094    6.78543431907029    3.98980973681798
H         9.99051856340424    6.19585779423582    2.71152994276226
H        10.36193871646344    5.16602059255812    4.09447723350248
C         3.80837447143657    3.62208949840981    7.79191095947642
H         3.12042088754541    3.09905461576764    8.43861813308032
C         5.15815449077327    8.01800015487339    7.87030675887980
H         4.66650526866313    7.17904262271930    7.38051489176034
H         4.39834575806741    8.64214009156787    8.33506637477868
H         5.79873549760456    7.62702144485992    8.65705180180475
C         7.79424097327944    7.06875046353307    6.64226374071146
H         7.72138522261570    6.87388980543486    7.70644565991403
C         9.00497222089150    6.77169053184317    4.53278068281529

