160
CSD_code = BAYQOH | q = 0 | S = 0 | Stoichiometry = C58H95O3P3W | MND = 6
W         1.92739144368918    4.15875435610967    5.01150470288070
P         2.21936853109314    4.16602920366455    2.54492298571197
P         1.85914948147965    6.65676452684436    5.10210838938061
P         2.11635045193572    1.64914368249448    5.07429380608673
C        -0.03372978572830    3.95046801474913    4.80204859114372
O        -1.16745145699103    3.73872492712321    4.77410438269265
C         1.57016213777698    4.32579835309599    6.92450956050821
O         1.29483272063285    4.54679816932739    8.02670378458995
C         3.88991098601055    4.21583481976244    5.30670162938511
O         5.01962799431899    4.17336287939163    5.53580200982720
C         2.10357507045308    4.12677417071153    0.97811513450584
C         2.13285113674558    4.16279570512431   -0.42579935430691
C         1.04459733774678    4.71892804865034   -1.15227932436433
C         1.14302693098925    4.81459680515754   -2.52750963963189
C         2.25751963476386    4.39263883062125   -3.23861915546425
C         3.28606179683064    3.80906982895732   -2.51904916869803
C         3.25125345319494    3.65954270560974   -1.14188933498912
C        -0.21668555220675    5.24297152320159   -0.46809833944972
C        -1.30567307304437    5.68503741025740   -1.45730427132251
C         0.15473631257473    6.47477298129584    0.36482444984808
C        -0.84959415360646    4.15663405783649    0.40958388187220
C         2.29279763206844    4.56630619185725   -4.74834017827831
C         2.14991039782283    6.05761092080621   -5.08483067907605
C         1.12991142396195    3.78025192676731   -5.37081790906733
C         3.59628799348195    4.06221542077363   -5.37430523115117
C         4.39826890412310    2.91431581233118   -0.45966675251465
C         5.44134938839121    2.37000862886861   -1.44877039640895
C         3.81965041320837    1.69278037495539    0.26698062063419
C         5.16030356323859    3.83589729070555    0.50116685065011
C         0.15789624450368    7.43237730929093    5.13127545331455
C        -0.65234524446863    6.90845180652019    6.31773811245346
C        -2.08290199641768    7.44058435543652    6.29669756685691
C        -2.77454978680557    7.05929432169375    4.99422755720252
C        -1.99733562413503    7.63809087465649    3.81932968076271
C        -0.55966117790442    7.12514486050227    3.81732073834387
C         2.58400066091487    7.43719945795323    6.64577407645020
C         2.79029689327447    8.95104764028845    6.62158517921971
C         3.12159831880439    9.45072788864521    8.02698226204478
C         4.39382833365971    8.78219988842140    8.53711310526020
C         4.23544288477700    7.26556806397582    8.52070216592784
C         3.87048621333040    6.76683035762737    7.12367317536529
C         2.63314875804532    7.47653272573509    3.60344556767045
C         4.12487819481984    7.15881518764777    3.51923594551570
C         4.64177032032680    7.46657509664563    2.11647941748283
C         4.39544478344881    8.93122363295134    1.76770283136522
C         2.91367035750704    9.26980929078814    1.90114000359291
C         2.41602012277131    8.96226947538702    3.31436186008191
C         3.89804684033238    1.07405423733449    5.05599585715709
C         4.21112331172828   -0.40014248849738    5.31750705051694
C         5.71964590222957   -0.56286887266449    5.51155674791298
C         6.47722253203033   -0.09914506090492    4.27084757808697
C         6.11260970380112    1.34163788319188    3.92504217250305
C         4.60214448754087    1.47763601448491    3.76158749341813
C         1.48955210357765    0.85535108387787    6.64149621153582
C         2.35192211617749    1.23207892622808    7.84636344656599
C         1.77436922357343    0.64695450500232    9.13392228872117
C         0.33602703658128    1.10532807547617    9.34306280738132
C        -0.51891304958882    0.68245209396379    8.15433571065352
C         0.04170939986220    1.28609933651485    6.87086742214932
C         1.35260082979074    0.59779354790682    3.71106775931997
C         0.98259397658462   -0.84534302395597    4.05911605120719
C         0.59850102066058   -1.59612263569854    2.78376070785129
C        -0.58852187267564   -0.92477232297208    2.10123253828266
C         0.13363867148947    1.26708425614681    3.07821503969077
C        -0.27071950761105    0.53658283225738    1.80139967261642
H         0.32709791203109    5.24124047428618   -3.08165709038006
H         4.14487389013379    3.45588705718227   -3.05562203015742
H        -2.18380869346515    5.99475455703315   -0.89335260758864
H        -1.60354458306582    4.86929603828899   -2.11243672818494
H        -0.98655819924305    6.53480097322369   -2.05684212980797
H         0.85682587272139    6.20708928908391    1.14839936619078
H        -0.73555548565819    6.90024647422424    0.82186446212937
H         0.61362871546295    7.23017382362702   -0.27165585865631
H        -0.16486178326992    3.81931497580215    1.17980299695951
H        -1.12661493392151    3.30014454581208   -0.20222226101880
H        -1.74478901169287    4.54055137255593    0.89449137868802
H         1.20723724265894    6.45810237951287   -4.72218272247799
H         2.18941436062039    6.20518926672668   -6.16218049863051
H         2.95895307882333    6.62462884162170   -4.62849965955035
H         1.21059817390940    2.72533980572862   -5.11600739659027
H         1.14891573281921    3.87634084955177   -6.45452794074967
H         0.16978929613849    4.14344545807989   -5.01463234520394
H         3.56833666690599    4.22551097224783   -6.44997398187006
H         3.72839879982713    2.99643265484286   -5.20177730911686
H         4.45502021493417    4.59826071870455   -4.97628931650136
H         4.99603924896944    1.68196213777046   -2.16397803468104
H         6.19780508583344    1.82169394425233   -0.88972108119311
H         5.94700568661222    3.17143888045861   -1.98257731969007
H         3.29121513662648    1.05889536837520   -0.44393922903272
H         3.12405724309590    1.99069167326335    1.04541474017491
H         4.62377654369975    1.11274633748985    0.71429972300688
H         4.51885589672252    4.22078669736216    1.28650383908301
H         5.57357697528951    4.68035961851632   -0.04736702853799
H         5.98060107087600    3.29329023599122    0.96647440372522
H         0.26851298109307    8.51919176852121    5.23492530873469
H        -0.18555392339221    7.20068526227321    7.25995103617128
H        -0.67322528879113    5.81730049529648    6.28354726453098
H        -2.63290968512496    7.03429632323635    7.14792080717741
H        -2.06949075826152    8.52971713483130    6.39566857639636
H        -3.80078414796686    7.43282280543701    4.98810180087929
H        -2.80900145188975    5.97189433406117    4.90693256329168
H        -2.48162114421565    7.36713363037407    2.87825846996395
H        -1.99451149078485    8.72968008866738    3.88983173900708
H        -0.02526796368926    7.58469872457037    2.98619793143123
H        -0.55991196435413    6.04385130093700    3.65557651815705
H         1.82043034851920    7.20949989735627    7.40202801769443
H         1.90102720108628    9.46532082350861    6.25398698501100
H         3.62834622200511    9.19468893968951    5.96690776633448
H         3.24962020399584   10.53572990065324    8.01146053963441
H         2.29337506932237    9.22127176654160    8.70154692741475
H         4.61599436500239    9.12381059116546    9.55017033588300
H         5.23322709476207    9.06648713818445    7.89759734473690
H         3.44714932560144    6.97549620278119    9.21937807576624
H         5.16241218881112    6.79038149759060    8.84814148657166
H         4.69090897001897    6.97630319180556    6.43485202033242
H         3.72453498452208    5.68666134602555    7.16334839731175
H         2.14919317222624    6.91423242631684    2.78798744035424
H         4.29357800301351    6.10303294731333    3.74964208855216
H         4.67728964988177    7.75642205697094    4.24733217113957
H         4.12295564855140    6.82935895818663    1.39540810362087
H         5.70848364923355    7.24105227061030    2.05506180546164
H         4.97386684901434    9.56719699148275    2.44259077629126
H         4.73278223855927    9.13353093797617    0.74907671913223
H         2.34191051195966    8.68384390882625    1.17775339431054
H         2.75259454187135   10.32706007242919    1.67800117882218
H         2.97474195150312    9.57796714573024    4.01733162837701
H         1.36312226396971    9.23454413815316    3.39136631675703
H         4.33856170442467    1.66382340819627    5.87182071957028
H         3.69364160477815   -0.77231726156313    6.20238872891490
H         3.90534539130997   -1.00264708660796    4.46013394385258
H         6.03940413223047    0.02744739166537    6.37359990321892
H         5.95356308932060   -1.60983164293238    5.71879557799783
H         6.22033272295322   -0.74835519689428    3.42949048560063
H         7.55285103470385   -0.18318550176705    4.43914670236352
H         6.45197782124084    2.00934916092929    4.71932399188845
H         6.61466027256318    1.64049400154913    3.00194825633114
H         4.34860760765001    2.50512053358559    3.48569708388585
H         4.27736668865860    0.82289197069255    2.95134122241524
H         1.51956047923782   -0.23290552132135    6.51504790847385
H         3.37028335273542    0.86155881524475    7.72038834601168
H         2.40288178924196    2.31851113587038    7.92815614618742
H         2.39164757410552    0.95372690593073    9.98088547411089
H         1.80108390493752   -0.44528560486802    9.07976863521110
H        -0.06268970674367    0.67847496833331   10.26582243053942
H         0.31349847043111    2.19272934758640    9.43497232988090
H        -1.54987996208091    1.01320398105147    8.29579052934132
H        -0.52405397964334   -0.40857934347140    8.07785622935759
H        -0.57722802299186    0.98991326204437    6.02096547055103
H         0.00500999767553    2.37545827409444    6.94358491680855
H         2.13948057932481    0.57653213928257    2.94318617207473
H         0.12920370468256   -0.85480248172006    4.73980223895164
H         1.80910711915001   -1.36440851520565    4.54344397806296
H         1.45040747175613   -1.61039584794119    2.09908012778293
H         0.35023026102199   -2.63135084848494    3.02916788132224
H        -1.45962613783677   -0.97710267325148    2.75866297748008
H        -0.83553080467662   -1.45201907619012    1.17739085251290
H        -0.70519019930060    1.26304201579906    3.77674716219350
H         0.36486962144856    2.30868631859099    2.83968931008837
H         0.54684551844225    0.59379697859241    1.07814815733916
H        -1.14149496924727    1.02441736494606    1.35941393441619

