119
CSD_code = BAYVAZ | q = 0 | S = 0 | Stoichiometry = C60H52N4NiO2 | MND = 6
Ni       12.86582548371894    2.81994089387025   10.34535528366434
O        14.31131167603185    2.94466302515822   11.44847905784008
O        11.44469763052100    2.95433380602715    9.21175925318418
N        11.60217116112024    1.70956117346696   11.73273717373204
N        13.79734570236367    1.05770070427004    9.41621445933159
N        12.26157328328870    4.94390978371674   11.27190828055309
N        13.93639892484501    4.30083747115044    8.81567953566182
C        10.34003278720806    1.55132780001093   11.51938073122983
C         9.59399996787423    1.97961328476708   10.38592767555584
C         8.22095786628150    1.67568559720254   10.35277452040073
C         7.42538968261261    2.05180125868527    9.30525110292641
C         7.98970827499106    2.78140254859705    8.25528383073517
C         9.32414000522835    3.09973828925733    8.23914928323790
C        10.20457622930148    2.67987035540109    9.29632286798225
C        12.11176598064535    1.15195973051636   12.91290766341264
C        13.17635688025005    0.25604654536733   12.84733592010883
C        13.63082853150152   -0.37080609157194   13.99032304811925
C        13.03301827802193   -0.11569903386571   15.21393061769052
C        11.99255474636732    0.79439917982626   15.29112330354040
C        11.53091127647332    1.42403182707618   14.15125873840409
C         9.87511702752980    3.94021703865527    7.14847607378857
C        10.49062700872915    3.35222862366070    6.03506373715163
C        10.52596708198119    1.94630958550267    5.85403098306428
C        11.08178131372832    1.39939331734589    4.73885844648367
C        11.66891606970858    2.21742722408772    3.75203085176302
C        11.67186465648524    3.56995114699857    3.89613639876958
C        11.07379887322914    4.18281378124419    5.02610011145420
C        11.04126603537820    5.56543837107172    5.17440581112230
C        10.39441233707321    6.16121478160083    6.25200491522824
C        10.32126905486669    7.57127761074299    6.38981670590205
C         9.64700777931323    8.14225436583973    7.42437241870530
C         8.99305486706505    7.33225471933436    8.37551064833238
C         9.05509490641914    5.97455789595747    8.28846961160440
C         9.77307582914923    5.33680930773465    7.24215300210780
C        14.98488587333979    0.67283306597318    9.74073396419340
C        15.82976405858226    1.22592924838151   10.74381522569877
C        17.07718096286875    0.61253445276542   10.95930238204527
C        17.94903664828517    1.06686651569619   11.91075329769840
C        17.59811148888697    2.18551325878821   12.67153609811994
C        16.39425511677328    2.81995731876409   12.49872994658364
C        15.43224675339278    2.34820465437159   11.53896254300580
C        13.14295130132217    0.31248849910133    8.42783108449223
C        13.75946745730442    0.01820301254509    7.21156012518524
C        13.12697994452443   -0.78999979832947    6.28662575967437
C        11.87669265033698   -1.31859795916151    6.55954270418944
C        11.24819945291048   -1.00909986928605    7.75512365939274
C        11.87284824216098   -0.20011183488645    8.68310396035055
C        16.07687529503533    4.04536773084938   13.27199259159110
C        16.45240949611597    5.29550371629626   12.75742707099512
C        17.25027597920297    5.42167880737240   11.58972355025227
C        17.57874673277163    6.64525677396587   11.08947359357764
C        17.12844079313400    7.82231544507896   11.72216552695326
C        16.39230375765452    7.74534779867003   12.86385092164252
C        16.04741811234491    6.49110085120381   13.42994402094454
C        15.34267380342354    6.39655626343088   14.62528482831279
C        15.04964770008798    5.16160946790511   15.19482797877908
C        14.40075778088294    5.05789379241699   16.45106855238487
C        14.15215233970614    3.84325127594131   17.01057793615303
C        14.52006035521169    2.66179828716716   16.33501706048349
C        15.11178995559416    2.71720119300351   15.11074819895787
C        15.41137112338282    3.96239039787540   14.50285543059020
C        13.18302662096804    5.86512906376381   10.60342638472661
C        13.30153867635775    5.58917343988680    9.10239982023580
C        12.50906478845439    4.95701803267258   12.70965003910897
C        10.88487803563990    5.36191867190480   11.04585853037614
C        15.38153216961591    4.41145972211012    8.95966992429218
C        13.64741935449822    3.90745654131551    7.44065114055653
H         9.75615171226005    0.99071878874910   12.26064121221623
H         7.79645488800871    1.13196899904814   11.18620254677596
H         6.37469961913170    1.80707062504101    9.28972830955557
H         7.36542504181997    3.11311744610963    7.43670476942536
H        13.61814044379200    0.03956446689791   11.88770632436534
H        14.44899588405807   -1.07367826065906   13.92377132331434
H        13.37840547275630   -0.62434322319166   16.10209759803712
H        11.52953309944913    1.00921180950697   16.24352538915376
H        10.71878198294165    2.13522479004227   14.21542866108328
H        10.08759841928080    1.31814446137234    6.61493079116491
H        11.07771690556891    0.32972657772546    4.59936473004440
H        12.11216123197940    1.75754788547799    2.88056875454755
H        12.11635228705106    4.20698879903731    3.14427680583374
H        11.50938322596726    6.19048274790120    4.42622039510587
H        10.80666689687127    8.18248469168733    5.64192755207344
H         9.59263286350092    9.21705017128965    7.51883738350515
H         8.43668655641448    7.80098818644175    9.17412731797902
H         8.53568841157067    5.35687351442533    9.00658732050949
H        15.40040196827133   -0.20907878906723    9.23603100314374
H        17.34068798325783   -0.24069047885880   10.34847883495976
H        18.90009719045203    0.58258489802664   12.06916407647318
H        18.28902689402716    2.57090915206874   13.40906949328326
H        14.73473705131594    0.43124551978106    6.99266847727933
H        13.61804138148922   -1.01495831629238    5.35061431233647
H        11.39244964487594   -1.96786030937502    5.84464237367697
H        10.26872527940116   -1.41152895739611    7.97107541527078
H        11.40037093551576    0.02282490003077    9.62672471697589
H        17.61726492953544    4.52076980785420   11.11951944323172
H        18.19318857313887    6.72407106433846   10.20440255490048
H        17.39058642407648    8.78185969413376   11.30071762541973
H        16.06576558165995    8.64159644745039   13.37240794134265
H        15.03788294076134    7.30110086340376   15.13369964656494
H        14.12461420507739    5.97033436982393   16.96085039478939
H        13.67385109456819    3.77185374005953   17.97680868880247
H        14.32678040129323    1.70885319938377   16.80240695384981
H        15.38044554011354    1.81170316156848   14.58763810295384
H        12.85460291411212    6.90907061066800   10.74490387822800
H        14.16359821251992    5.75678428128052   11.06985390397659
H        13.87188309439275    6.41117315664333    8.63686167137801
H        12.30523169564984    5.57839457184229    8.65689817511264
H        13.50124146866360    4.56859694395869   12.91590355477763
H        11.78471547301015    4.31692852581593   13.20915191648144
H        12.42442403824568    5.97377067707495   13.12190891978750
H        10.69657754187139    6.35663567749352   11.48003237062828
H        10.20282174503514    4.64726791970941   11.50394853525829
H        10.66982150514369    5.40569066187793    9.98286286516812
H        15.79675467394584    5.13388419673794    8.23926179479525
H        15.84425188425940    3.44120625752036    8.78612025655812
H        15.63959953771362    4.73798682189163    9.96202532849287
H        12.58318051097166    3.72945094123437    7.32416066882468
H        14.17215698550195    2.98328276600546    7.20794832330363
H        13.96552572764409    4.68242979013964    6.72712468296153

