33
CSD_code = BAYYAC | q = 0 | S = 0 | Stoichiometry = C16H13N2ORh | MND = 7
Rh       -0.87670832720855    0.43949472555977    6.35357803100655
N         1.02709165554041    0.72836086532368    6.65972584546479
C         1.79117375411283    1.70073922733895    6.12973351193770
H         1.28907991951923    2.39513680477558    5.46670294130567
C         3.12939266718105    1.83306152401139    6.39395956457909
H         3.69147546139611    2.63313456765876    5.93921628040377
C         3.75177125770705    0.91926383348272    7.25816275153322
H         4.80480980571470    1.00867773859373    7.47594315928271
C         2.99909512629852   -0.07932835629602    7.81447861288106
H         3.40920277154540   -0.81418241631989    8.48685934243542
C         1.62915209658069   -0.17146703757072    7.51132521482569
C         0.69840397427580   -1.13409922118343    7.99477927543930
O        -0.50805245714619   -1.00092561579050    7.55741358925140
C         0.98292696579302   -2.22130070423943    8.92147909893388
N         2.22746689511090   -2.37786301752477    9.38325392599487
C         2.46822580521723   -3.36408036659899   10.22416058497430
H         3.49432727416049   -3.43925166114232   10.56299416383671
C         1.50483460745282   -4.25841117624347   10.66539260497591
H         1.75872477399204   -5.04725727127927   11.35587936074656
C         0.20871386484201   -4.10347941279572   10.18987633093273
H        -0.57643820891762   -4.77611057806397   10.50495864401838
C        -0.05978966237543   -3.07710770630515    9.30935121059302
H        -1.04836574746890   -2.91301990282530    8.91114599640196
C        -1.99027974612769    2.27683783212311    5.73362695695491
H        -1.77062023621836    3.31057434887301    5.95377006031425
C        -1.57158092393954    1.57290515222524    4.57136432000003
H        -0.99153445668513    1.99238909510584    3.76276591880195
C        -2.23524366756367    0.32181877388829    4.54533050099336
H        -2.22408531223203   -0.38981390157401    3.73485441086423
C        -3.00027461148026    0.22259490402883    5.73752261151707
H        -3.69190466910465   -0.57268589807240    5.97102652226538
C        -2.89659485114772    1.45102279148573    6.44211316016017
H        -3.47209579882584    1.73347205935050    7.30975549637378

