61
CSD_code = BAZBIP | q = 0 | S = 0 | Stoichiometry = C31H26N2PtSi | MND = 4
C        11.37875918990439   10.57672339097738   13.70043927593948
H        12.35395823725759   10.11622624962037   13.64121441496932
C        10.99758306232277   11.54624293149971   12.79437326629551
H        11.68030359325325   11.85135460799813   12.01382927314544
C        10.50325214681940   10.17696269501995   14.71280912033604
Pt       11.60627620255076    7.08440938111486   17.89619759851951
Si        4.84200209666577   11.52941782114868   17.63068737384323
N         9.94657140178611    7.56570548494109   18.93995131463829
N        11.85380924317944    5.87401393258134   19.49442953048786
C        13.22381754442737    6.51912801951170   16.95812618087750
C         9.81120551028291    6.91234400298181   20.11520382048048
C         9.00234798862916    8.41301785910145   18.55502677982583
H         9.16123886237150    8.91194772007270   17.60798203227778
C        10.96184220865879    5.26228727610654   21.62728288226519
H        10.19460121052749    5.36891910281631   22.37684587699248
C        14.24152094392687    6.08587807260635   16.45473092336559
C         6.07324317208064   10.34425179585780   18.37169889100439
C        10.89352857932689    5.98982431728532   20.43835401627526
C        12.02293816251548    4.40593419736005   21.84403327598016
H        12.08996356991010    3.83854819995981   22.75954279693484
C        12.87344663022639    5.04370444650606   19.70882627389845
H        13.60971177909448    4.98709320201877   18.91755368574542
C         8.69410539422855    7.12454467432454   20.92715694979915
H         8.59413336631199    6.59903529107996   21.86308972274345
C        15.42428883028876    5.57690681285841   15.86690351320365
C         7.85782204768989    8.66989983456975   19.30729014622429
C         6.89298199179424    9.57498519120092   18.81789417546240
C        12.99912871984085    4.29275293171557   20.86076891899773
H        13.84331823335293    3.63459455736300   20.98664149573903
C         7.70985625736776    8.00301906618868   20.53033931101040
H         6.83819227689223    8.17723097993261   21.14235582106690
C        16.65537552872182    5.72299005939745   16.50979417170194
H        16.69871953272017    6.24413845136786   17.45596788831698
C        15.37188537589042    4.90907534386426   14.64145469235639
H        14.41902890004002    4.79831877925725   14.14455627771526
C        16.52533879203794    4.40038409588327   14.07794567481366
H        16.47719023568660    3.88461233998949   13.12904699682395
C        17.74398021453570    4.54961126105629   14.72154651820023
H        18.64453009831934    4.15119209750092   14.27680823519587
C         4.95927259280687   11.36157153500306   15.73808500745961
H         4.72736333644559   10.35079536219554   15.41546373732114
H         5.95969450616320   11.59410681941478   15.38624704702437
H         4.26876331295006   12.03396706943934   15.23670186253293
C        17.80402374517342    5.21363335236905   15.93645352927775
H        18.75386823126904    5.33325414347613   16.43901930642719
C         5.31377773011165   13.28352436674843   18.20447503763056
H         4.63488399417401   14.02704475816104   17.79650358755400
H         6.31829038759382   13.54412818084058   17.88463231636801
H         5.28180340072781   13.36792915295269   19.28675966622261
C         3.11256215013128   11.03915040735505   18.26287837947007
H         2.86457396499514   10.02022191022555   17.98053233089054
H         2.34480542922640   11.68933245373094   17.85330523811766
H         3.05383388155851   11.10345291373043   19.34538597121686
C        11.26099344621839    8.34390641746335   16.44152199220215
C        10.89957217388603    9.19054291376230   15.64848756465356
C         9.24018417382544   10.76892004361496   14.79412917980178
H         8.55505452148286   10.46487664232642   15.57495706760696
C         8.86814666143256   11.73669904637696   13.88140583998551
H         7.89001440254549   12.19348926260538   13.94779283519665
C         9.74277406085809   12.12917944474956   12.88074692859292
H         9.44704676500113   12.88784732882421   12.17051646097019

