53
CSD_code = BAZBAG | q = 0 | S = 0 | Stoichiometry = C28H16N4NiO2S2 | MND = 6
Ni        1.67745514935646    2.04299292474710    3.52652351534307
S         0.76329479415053   -0.22962153904240    2.44451022512832
S         2.91620900020916   -2.26795597685309    6.88991401878813
O         2.72705913478630    0.65742762244633    4.94573628528447
O         0.95763069509701   -3.43266410456940    4.16142173456465
N         0.62640115725711    3.10181491531080    1.91196615031946
N         3.00336900441747    1.86950570721813    2.19711796615253
N         2.55758936491645    3.54590448050280    4.84994965058015
N         0.30594580617200    2.05226891274821    4.86821458074897
C        -0.57692657105259    3.61607446294744    1.78272661515501
H        -1.12240242802153    3.80752791431113    2.69756937328892
C        -1.14931330653673    3.92378630467857    0.54421832243575
H        -2.14529136606598    4.33614301833372    0.50274123068463
C        -0.42226872563636    3.71073286355172   -0.60199340120447
H        -0.82431781039167    3.95336599046030   -1.57492405576929
C         0.86801070613802    3.16532321701744   -0.49848900855139
C         1.70413883257701    2.91227928518132   -1.62296283396120
H         1.32534991029361    3.15515246820210   -2.60485462178461
C         2.93951186164756    2.37778033751826   -1.46852318396073
H         3.57137935520441    2.18929010028134   -2.32387516720489
C         3.43476557071199    2.02056796045729   -0.18113854726839
C         4.68855124429492    1.41993955209610    0.01871617457699
H         5.33033073863144    1.22434088991639   -0.82760604028515
C         5.06741700099218    1.08293721819404    1.29568408546985
H         6.02224740311619    0.62088163939917    1.49053058400880
C         4.19255036065293    1.32007924612583    2.35884620027440
H         4.46689301630050    1.03710380766324    3.36743801766502
C         2.62681653657948    2.24453962284440    0.95323728837467
C         1.34036250282320    2.85605255540366    0.79461360470754
C         3.68723936110715    4.21754117410600    4.83420849878740
H         4.12638405416793    4.40411995412530    3.86237875436797
C         4.31401557797907    4.69360160594464    5.99109886427589
H         5.24610597028333    5.23129685487881    5.91291345431572
C         3.72275380936871    4.47233482908977    7.21037251570497
H         4.17091758935957    4.83152876487052    8.12551597914518
C         2.51309878249387    3.75907628748945    7.26244266403261
C         1.82995986181071    3.47392747067526    8.47863861440300
H         2.26421689389480    3.82720882843263    9.40234161516465
C         0.67337931101279    2.76865203557157    8.48088699808232
H         0.16063434660414    2.54813839914154    9.40539644889040
C         0.10891349925548    2.27446689522100    7.27004775522112
C        -1.06898599030494    1.50954484332123    7.23357985968312
H        -1.58475227868674    1.27726042205606    8.15363613159502
C        -1.53731973966466    1.06674838306656    6.02141309398116
H        -2.43890000542257    0.47943356094611    5.94988744187259
C        -0.81900838873910    1.36341143062554    4.85950307081201
H        -1.17088233207063    1.00774355132480    3.89926180260263
C         0.76435924734868    2.52836276161957    6.04669541190581
C         1.97610484376535    3.29928637837533    6.04128791471670
C         2.27292750285612   -0.48323051020390    4.77146754546869
C         1.43475263483022   -1.03370539185218    3.73942248523652
C         1.44149117188604   -2.35248170071370    4.38724120856953
C         2.29183533824360   -1.76413822521247    5.46145310762501

