98
CSD_code = BAZCAG | q = 1 | S = 0 | Stoichiometry = C37H56P3RuSi(1+) | MND = 8
Ru        2.38366982412935    6.25678189675168   -0.10320271357008
P         1.81288090647186    4.03006521312472   -0.00887472236799
P         4.13529813989580    5.94107340415408   -1.57156176566719
P         3.82601083278866    5.90734271011066    5.00113105399767
Si        3.92227239242478    6.24263815956642    1.70411021520213
C         2.66526839097579    9.41621835674813   -1.57001582837958
C         2.01525804241579    9.40118258521884    1.47609844291159
C        -0.22975421670890    7.24097807065245    2.01086973185480
C        -1.13445832409995    6.17471432414401   -0.80765048342415
C         0.64603073432964    7.39673147471598   -2.97671402532296
C         1.90802779612609    8.32446425186217   -0.87336175856752
C         1.62290287106528    8.31235439752758    0.52386964357935
C         0.60343440589020    7.32885534344841    0.76230640559800
C         0.18244321890565    6.83011886001782   -0.51951522719244
C         1.00170174987164    7.40921037233940   -1.52010256956986
C         0.36582008973581    3.58295749855314    1.03933270174526
C         1.26446080177414    3.34347754616273   -1.62767633149174
C         2.88628907386419    2.62620194722311    0.51413172224784
C         3.75276803155438    6.02335133893832   -3.36899918183353
C         5.13619074692459    4.40028878976247   -1.59568520726648
C         5.52803681938758    7.13668216353653   -1.50514828850760
C         4.97893977977601    7.85576183052574    1.98814095023317
C         5.32892361553408    4.94871367699976    2.07433259786065
C         2.95705504849371    6.20197516566947    3.47319190219358
C         4.26344312960348    4.17788683052801    5.27208545405288
C         3.77627754130402    3.18429767843224    4.43317185947330
C         4.06666781443349    1.85842900529993    4.69989583970144
C         4.83196546063938    1.52436798826322    5.80568471436181
C         5.30101894589188    2.51491590073226    6.65517865800682
C         5.01291785609407    3.84197409939141    6.39694845356079
C         5.26248494767176    6.98054253250183    5.19838058065797
C         6.57028265912286    6.51201523923773    5.18345146879445
C         7.61811471952283    7.40673261651374    5.31734994406208
C         7.36566424816226    8.76077739967598    5.46464093801285
C         6.06043818496375    9.22893075496633    5.48554484220300
C         5.00934680191870    8.34228160512826    5.35399684612129
C         2.75184108162676    6.28008033044899    6.42126181545324
C         3.27958561629061    6.77852737601367    7.60884675762242
C         2.44817111807919    7.00053988530752    8.69159805130101
C         1.09391835425609    6.72171358467548    8.59932974250056
C         0.56758180684114    6.21692896995509    7.42111208109732
C         1.39307026719702    5.99243430071923    6.33471511375456
H         3.47866759941171    9.79239211865699   -0.95211975300443
H         3.07786148782702    9.08614057651480   -2.52171005317119
H         1.98600719912995   10.24831695022443   -1.77081783054920
H         3.00958531377772    9.78387582665577    1.26502132903423
H         1.30614970484146   10.22577624637318    1.36712062692631
H         1.98557087303022    9.07165482499297    2.51175773328582
H        -1.10797794743194    7.88283700824223    1.90649267348475
H        -0.57554124619345    6.22549617563931    2.19695274557397
H         0.32510978473877    7.57693319906066    2.88358333344309
H        -1.76959035278264    6.90205118995521   -1.31983253403085
H        -1.04789339394222    5.30817694745895   -1.46146323729879
H        -1.64424149011882    5.87868523206219    0.10596330322365
H        -0.30814950199972    7.91308904917402   -3.11068896552313
H         1.38824015842964    7.91245133621559   -3.57925440079307
H         0.52756048726567    6.38483779537218   -3.36191698142681
H        -0.52013725870686    4.11557538824406    0.70898273748323
H         0.18027491224665    2.51068526372325    0.98269374833278
H         0.57895041730471    3.85598105485524    2.07214664947788
H         0.59812779384560    4.04578031749418   -2.12361901460714
H         2.14061561932878    3.19944595841333   -2.25838076458206
H         0.75237423896082    2.39135405983258   -1.49287503299795
H         2.39036340931228    1.68625652047996    0.27248871710546
H         3.84851290004749    2.66526035455006    0.01507688936385
H         3.04720677921783    2.68003827325860    1.58733840936533
H         3.46646429479847    7.03658629255389   -3.63880857287868
H         4.63070949124365    5.73523656675271   -3.94672089006230
H         2.92907963755329    5.35101546610552   -3.60185188893373
H         4.52695717209283    3.57120457906184   -1.94966020591218
H         5.98503861386805    4.53011377418266   -2.26654682495818
H         5.49521445167621    4.18888290336790   -0.59203089217489
H         6.08972128961008    6.96142907639035   -0.59054888598362
H         6.17849463548016    7.00160042587281   -2.36891622223332
H         5.15079006507829    8.15569712577563   -1.49658767195149
H         4.52878765804447    8.50787053698852    2.72818292353665
H         5.97940865599382    7.61608397382468    2.33611312817464
H         5.08504597448570    8.43027548376126    1.07456391019847
H         5.04246604026896    3.91903673336533    1.89623404671106
H         6.19989300963302    5.15518006788612    1.46022023399266
H         5.63944345888599    5.02995686848582    3.11313701049574
H         2.13835238562483    5.48218917440082    3.43235803018261
H         2.51381503433905    7.18987717112845    3.60602137215337
H         3.18499232166807    3.46130958096511    3.57389293097646
H         3.69504462397343    1.08333031069137    4.04669558667742
H         5.05966412326378    0.48971129896990    6.01025710216940
H         5.88852315682016    2.25137413162582    7.52120968910442
H         5.36450293209758    4.61802344671973    7.06312909532870
H         6.77168106382306    5.45606367255165    5.07048483298229
H         8.63465346191433    7.04432329772778    5.30611803251620
H         8.18668071551996    9.45338461094170    5.56696916086070
H         5.86471443101418   10.28357729743277    5.60495409523255
H         3.98651584464154    8.69595980229707    5.37854731698219
H         4.33473657853370    7.00280387289088    7.68183621041197
H         2.85881392029266    7.39173579356998    9.60979805858795
H         0.44879823161550    6.89680380749883    9.44620807840428
H        -0.48662481202954    5.99671907388474    7.34939527112258
H         0.98281272554039    5.59623663938263    5.41650518523531

