70
CSD_code = BAZLOG | q = 0 | S = 0 | Stoichiometry = C28H29F6IN2O3Pd | MND = 4
Pd       17.08717740729610    3.86124017389551   14.36273348610149
I        17.21680468844611    6.00216362078055   12.95005036914764
N        14.22614126928058    3.72678338701137   13.44464087739996
N        14.45921223872617    3.71945780460072   15.58348956312284
C        15.14085558705209    3.81545973394699   14.42555269883919
C        12.96915559106613    3.60018998417325   13.97918141057626
H        12.09665359715436    3.49772810653359   13.36907067094219
C        13.11730216872800    3.59073147361027   15.32281058261397
H        12.38716095481454    3.52448446093957   16.10192195492721
C        14.58068178301102    3.72297837184797   12.07500364518761
C        14.22713250467241    4.82939175420356   11.29535884743937
C        13.42596667402599    5.94710885818281   11.88429410524002
H        13.36885253220494    6.77321519548303   11.18289509483586
H        13.90126377529484    6.30800212705565   12.79443142793549
H        12.41461052927487    5.62574458638957   12.12679826689781
C        14.67633330033884    4.89890615528450    9.98896593514400
H        14.42058182488832    5.76076501315833    9.39209418951371
C        15.48699399873687    3.91205371312535    9.44872936115647
C        16.03447347150485    4.04617685468423    8.06546304567646
H        16.94073904600800    4.65051336736755    8.09717675857669
H        15.32185420960387    4.54491390351544    7.41370300868152
H        16.28556329036598    3.07518393518418    7.64760570478051
C        15.80202137233770    2.80607968780906   10.22406961866855
H        16.41222047290977    2.03743893560348    9.77961812011776
C        15.34847295615009    2.68512768342858   11.53501411666072
C        15.62536678381964    1.36124560088141   12.26274977205604
C        17.13552335089111    1.01934263390487   12.19061955304505
C        14.80631371846652    0.24722763860106   11.55267178478903
C        14.01694366749284    1.22995126176928   16.95706011196269
H        14.09557425107730    1.16351048928893   15.87394839201681
H        12.97304096964113    1.40915858066250   17.21451617178501
H        14.30033048576859    0.27019197198555   17.38210300566024
C        15.09345581571560    3.52632157457794   16.84249787633771
C        15.95801993201713    4.49822799370392   17.35722182104305
C        16.20361032889386    5.81489502935384   16.67706887706672
H        17.16141586089833    5.78229429925539   16.13243021667423
H        16.28392529817189    6.60647859590363   17.42012579664645
H        15.40825483994729    6.07389895410237   15.97759770922062
C        16.61156805930420    4.23390516006474   18.55432768922045
H        17.28588015975607    4.97831519207706   18.95302102198198
C        16.42838237275177    3.04433229921938   19.24137606618171
C        17.17302965584521    2.77987303816877   20.51360350046794
H        17.16417689842066    3.65932846630704   21.15402699775994
H        18.21325621490130    2.54008544075147   20.29194940368329
H        16.73763038848373    1.94411053858875   21.05542469807548
C        15.56271027433830    2.10087554572395   18.70818733258246
H        15.41168788376670    1.16571373942897   19.22942133428747
C        14.89624155596744    2.31225426194057   17.51030792140942
C        18.05316782103900    1.34375496035220   15.77901954811347
C        17.73166205938346    0.02813911847185   16.44562406766730
H        18.62453313094969   -0.57036512818856   16.59149642882026
H        17.01369392553014   -0.52426547038134   15.84254126662158
H        17.27363329026416    0.23458460223401   17.41271137290445
C        19.36607814794669    1.76862822802445   15.72952162102332
H        20.11274128581577    1.13077559752334   16.17618343663526
C        19.83208172160579    2.95932235867908   15.12511850618895
C        21.32924338980676    3.18319564816082   15.17092827187360
H        21.67388512214625    3.19415507275893   16.20292117301698
H        21.57232639478732    4.12975976007888   14.69436696557740
H        21.83734594034118    2.37484415157452   14.64902852095128
O        15.19356397102314    1.25225340413666   13.58338187694134
H        15.91957189914502    1.42630583607363   14.25553026115439
O        17.04100126267884    1.97196426057099   15.31101089120188
O        19.14687746429350    3.83298984191671   14.56050946963340
F        17.55013049214284    0.53671933912025   11.02025058639337
F        17.47313106637576    0.11388923934497   13.11247854692545
F        17.87842868180570    2.11849584806686   12.44256773738589
F        15.06126132429651    0.09845131933698   10.25091489537213
F        15.01684426577561   -0.94101314968036   12.12253903513851
F        13.50203333259834    0.51403796776162   11.65782560628406

