77
CSD_code = BAZLAS | q = 0 | S = 0 | Stoichiometry = C31H33F6IN2O3Pd | MND = 4
Pd        0.81943804748678    6.90618255707474    6.49657864805153
I         0.31435005133686    8.19996604199053    4.32796521074952
F         4.27419184731481    9.46683919106469    8.34122482607450
F         3.03459748231971    8.36375565424460    6.97181348431364
F         3.62842983068351   10.37602391486784    6.52523876445956
F         2.96964006763133   10.67977342740576   10.36209284808037
F         1.21352581553419   11.74439709791206    9.75027182583974
F         3.09585795270787   12.07741736583003    8.76618011612388
O         1.35468615165881    8.90814306802946    8.85674457761045
O         1.31482259940862    5.73983770334489    8.19099438175424
O         2.31246289629347    5.90466503774949    5.47550093964485
N        -0.91223734653491    9.01515276318893    7.76325470658909
N        -1.47384960301523    7.00436367222288    8.28785987867523
C        -0.62384524952917    7.71978651962440    7.52232740287954
C        -0.38362602502790   10.15130749068129    7.09650581967305
C         0.91227633520715   10.64639770338172    7.28297717666401
C         1.92708929411951   10.02758895323122    8.26002648340758
C         2.00624593372776    8.18323307926626    9.91353709671791
H         3.09182080616498    8.29845092250573    9.89762740590382
H         1.77629893246477    7.13486172905084    9.67784675274941
C         1.47018791776830    8.51129658553398   11.27359967426662
C         0.39096236971096    9.22953782618105   11.51835927230669
C         3.22554529315450    9.57983801160644    7.50767380844043
C         2.31053980341586   11.13124009644619    9.29301142822451
C         1.29506934122125   11.78809731007735    6.58236936599759
H         2.28297963839541   12.19980609585333    6.69454814607680
C         0.43782855587736   12.43273062158539    5.70572073524953
C         0.89831962809300   13.62662311281652    4.93560065319443
H         1.20488135650237   13.31076242059715    3.93933849288312
H         1.74690624905304   14.10193218110305    5.41872283763014
H         0.09480836511235   14.35030901547173    4.82597238650315
C        -0.83901233824800   11.92407922618563    5.53194234175850
H        -1.51221053578748   12.40287608169385    4.83773264093684
C        -1.25964671130536   10.79502794442863    6.20837933209728
C        -2.62100478696124   10.23341580428100    5.93521197965677
H        -3.05599757318733   10.73001235720347    5.07372418504220
H        -3.29112572857706   10.36199330809102    6.78348315363260
H        -2.54769622060065    9.17128879586700    5.71025027010963
C        -1.93584817585506    9.10830187379646    8.67549990169879
H        -2.31016178926683   10.05247913653348    9.01453275685241
C        -2.28516195300666    7.84692541517761    9.00667541890147
H        -3.04660023925092    7.48684179541282    9.66612850441697
C        -1.47036807740650    5.58805554526307    8.40366465164677
C        -1.63267128505861    4.78637520498906    7.26678925383563
C        -1.86236167637566    5.34894814467039    5.89377475256912
H        -2.30747591833302    6.34404086612019    5.92472811024886
H        -2.52145306167270    4.69184731732808    5.32924588906063
H        -0.90651733689747    5.40442699739748    5.34516421487133
C        -1.58614122405488    3.40712976158406    7.41732951767998
H        -1.70029240092074    2.78475477168331    6.54119594783355
C        -1.39288301718180    2.80920020891613    8.65294011396769
C        -1.33171614676474    1.31708713143815    8.77059311023162
H        -1.26930500523621    1.00887330518776    9.81111297615518
H        -0.45969262452118    0.93305035264848    8.24187901542319
H        -2.21487428907332    0.86381064156991    8.32344416958253
C        -1.25196628214497    3.62587315049895    9.76341318544963
H        -1.09810384266684    3.17932687585154   10.73569358850783
C        -1.28220402185475    5.00895902004233    9.66256171027973
C        -1.09029123322098    5.83117235761229   10.90310922339253
H        -0.58832045751751    6.77183780009734   10.69098217716066
H        -0.49650016687515    5.27776857329280   11.62746570489294
H        -2.05049791068560    6.05203358356326   11.37062145355998
C         2.15442604231325    4.79248582825167    8.20425032354158
C         2.27488991583521    4.03531894906274    9.51546489857182
H         1.71783160912700    4.54943033546758   10.29476643213316
H         3.31793797153651    3.94441925172082    9.80846436688463
H         1.86190145842859    3.03599328669017    9.39216130468014
C         2.97517831244471    4.37805315971358    7.16444074508646
H         3.64306704772077    3.55189827239787    7.35546612719197
C         3.01654091660199    4.95860885839045    5.88481530909746
C         4.01630922325764    4.37433523104884    4.90655193868873
H         3.93753037485555    4.89024941040802    3.95271495902028
H         3.82187548752186    3.31330448895283    4.76398697468333
H         5.02543689713231    4.48849446479948    5.29727561905233
H         0.05175161355273    9.41652220251526   12.52155637904418
H         2.04551500062935    8.07262933506409   12.07659896380573
H        -0.18859417862691    9.67172640718973   10.72503126032785

