121
CSD_code = BAZMOP | q = 0 | S = 0 | Stoichiometry = C59H53ClMoN2OP4 | MND = 6
Mo        3.73005745209913    3.30186879503459    1.89127825742728
P         2.50768572166075    1.72357025112432    3.20568671356053
P         3.07452318330893    1.78902861655590    0.15140007712422
P         4.63154328480343    5.07210536385010    0.56102720767680
P         3.91000295837551    5.01253925047847    3.55340089540353
Cl        1.67100130467456    4.58593529944851    1.54122619202535
N         5.14996484599943    2.32638773175734    2.15599992328287
N         6.09648865155501    1.55212954463188    2.29665986839445
O         4.77790764724337   -0.26508047500475    2.60813750893188
C         1.87429737103753    0.30578078464096    2.18827725773256
C         1.67819698638806    0.73387219872513    0.74047070602258
C         4.75084163056179    6.65543986399488    1.54225244597329
C         3.77673882036340    6.65978276084908    2.71004135648738
C         5.90456216574354    0.22499621726806    2.48785180143556
C         7.14368331815854   -0.57402747493120    2.49251486560218
C         8.38428185933449    0.00221556041849    2.23591219139145
C         9.51862865939883   -0.78489733832630    2.20015925878213
C         9.42652575033907   -2.15082006165575    2.41910885789616
C         8.19449068496663   -2.72923143974092    2.67841293836183
C         7.05771132081974   -1.94542516245856    2.71456422216476
C         0.97243898709963    2.22716522670682    4.05385587749714
C        -0.13659571889026    2.58872757389691    3.29332770919325
C        -1.30583147999829    2.99831514474891    3.90474230952665
C        -1.38832979099096    3.04098636519851    5.28629125917191
C        -0.29174904793694    2.68153614519532    6.05024818932220
C         0.88527828646578    2.28722907232629    5.44076788505974
C         3.38645080083006    0.93460020023175    4.57675746634131
C         4.47737331264851    1.59820343420780    5.12200414176355
C         5.20014721326194    1.02800096529089    6.15336340052585
C         4.83121721749877   -0.21051481082983    6.65086848244424
C         3.73072437810210   -0.86760736913601    6.12370545072733
C         3.00471077700064   -0.29858677445570    5.09462107613852
C         2.38205487265519    2.21170716750430   -1.48348381456500
C         2.86061307498277    1.66058620488421   -2.66753130418009
C         2.26059992234344    1.97729606360515   -3.87319576649667
C         1.18188445277263    2.84411506615351   -3.91092719956909
C         0.70834806754957    3.40549806720077   -2.73661248541298
C         1.30476408388482    3.09282611714120   -1.53059416652982
C         4.40490021007038    0.64377537611688   -0.29881129334030
C         5.59592145278751    1.25023701540060   -0.69011064936734
C         6.71470271067336    0.49306839884043   -0.97595290224819
C         6.65442490237493   -0.88713204789472   -0.86988185949941
C         5.46918480016725   -1.49837787877476   -0.49856485771782
C         4.34553837996529   -0.74138994727129   -0.21505768966893
C         3.73355572551048    5.56955091675770   -0.93903682725172
C         2.70272506659130    6.50164127675717   -0.92005518885582
C         2.02002748128640    6.80379538040218   -2.08496193052630
C         2.36307308806204    6.18603019100750   -3.27490768794260
C         3.37966778242133    5.24450991597295   -3.29738956687447
C         4.05035517839517    4.92610776966401   -2.13363024960805
C         6.33858374475347    5.08751249244793   -0.07545092744528
C         6.75377141199124    6.10169995854819   -0.93604193885875
C         8.06205228455512    6.14503561900128   -1.37805712117366
C         8.96974737245171    5.18263838732636   -0.96308850676434
C         8.56432212577340    4.17866825923069   -0.10108072162204
C         7.25412263862226    4.13186763660198    0.34460462421542
C         5.49511736507180    5.31655662713604    4.40186162874651
C         5.61305832017882    6.31926947707077    5.36245422483176
C         6.83708197957321    6.57807231046089    5.94868445855806
C         7.95519126889712    5.84481185836861    5.58095446470832
C         7.84475623875942    4.85056739026719    4.62449978697994
C         6.61921084622244    4.58842390507853    4.03606812609788
C         2.73117310728147    5.19372487329922    4.92758450507518
C         3.06850375637999    4.70776544674928    6.18986195488339
C         2.18594457206486    4.83215815270622    7.24528969273697
C         0.94832182317046    5.42331254633496    7.05125618069816
C         0.58839440946749    5.86664406781269    5.79046202391761
C         1.47089921016932    5.75155569859455    4.73233893462579
H         0.93729499894901   -0.07433919287327    2.61191766650424
H         2.65162664877975   -0.45901587743071    2.25391857740173
H         1.54578804624849   -0.12403450637321    0.07014169695630
H         0.78700511864296    1.36727879787368    0.63893484824946
H         4.61738423096703    7.52626688341956    0.89129963575980
H         5.77823021472172    6.66964660680543    1.93381730007310
H         4.01325314614797    7.45945350486475    3.42178251018334
H         2.75001806181887    6.79132919958226    2.36018682894409
H         8.44024430564055    1.06620887834075    2.06277103407497
H        10.48169285178954   -0.33712365113150    1.99892004471575
H        10.31577544328889   -2.76399720357254    2.38680649063958
H         8.12387785572201   -3.79379885236857    2.85063773648233
H         6.08591336942517   -2.37309692006555    2.91204021584768
H        -0.08286965836970    2.56141559920904    2.21439139235311
H        -2.15608342905662    3.28319985382273    3.30149917327505
H        -2.30475929865356    3.35371031613670    5.76558879392973
H        -0.35114109777612    2.70815365692694    7.12881797490701
H         1.73891910755087    2.01860882238668    6.04695416400925
H         4.76317640278779    2.56135844349564    4.71223197077384
H         6.05722373358565    1.54515790684984    6.56200305514635
H         5.40165246849265   -0.66572196295031    7.44764746046119
H         3.44101755128001   -1.83218531387991    6.51613300764275
H         2.14701411047782   -0.81407955944226    4.68692817477977
H         3.70087094691568    0.98061673429438   -2.64655362467545
H         2.63600395465726    1.54031684905214   -4.78783412777528
H         0.71357951304120    3.08470646196996   -4.85435797880845
H        -0.12737631746443    4.08957460070508   -2.76086911274481
H         0.94352059868279    3.54924783940828   -0.61955670274242
H         5.62883280278449    2.33237695227732   -0.75391132051748
H         7.63551223757586    0.97826528069677   -1.26650814319422
H         7.53185122874704   -1.48509078497239   -1.06808304503320
H         5.42270664807628   -2.57452980327144   -0.41477190173553
H         3.43764088207751   -1.23817066938940    0.09120744483693
H         2.42355553458188    6.98549470003190    0.00492604927647
H         1.21815770915027    7.52790436513556   -2.06273352017111
H         1.83578937366103    6.43301644229543   -4.18471146789505
H         3.64481170470198    4.75433517301637   -4.22265960852057
H         4.83847893920058    4.18329261148171   -2.14624747832506
H         6.04511984747683    6.84912994388455   -1.26700317440887
H         8.37666939651057    6.93111321982915   -2.04937696563905
H         9.99091996527378    5.21809807777056   -1.31365915775067
H         9.26916113813058    3.42747337783458    0.22495368857186
H         6.93520748546599    3.34401918494407    1.01009848196078
H         4.74078503340512    6.88703645104623    5.65962276733173
H         6.92143393844494    7.35423840499333    6.69580455197138
H         8.90975355577202    6.05014286030445    6.04303829484018
H         8.71243517542359    4.27576344012538    4.33571142385924
H         6.52528710443284    3.81010854738754    3.29206556787244
H         4.03310428381411    4.24356430117314    6.34658241841942
H         2.46532073972995    4.46652599618554    8.22317493100895
H         0.26287277841892    5.53045437589976    7.87927915275294
H        -0.38468307141616    6.30730104951765    5.62914479302383
H         1.16906041045759    6.08662337014751    3.75112626707820

