63
CSD_code = BAZNIB | q = 0 | S = 0 | Stoichiometry = C25H30N6OTi | MND = 6
Ti        2.86789852995893   11.21380375385353    2.26960807108484
N         1.30465062130071   11.09354434246028    3.02241568383397
N         4.76530854311709   11.15483417721896    1.14076182662048
N         4.05560784809864   10.87499100007453    3.75175570323457
N         3.06534222663559   13.13521257889590    2.22066990084920
N         2.45488364061515    9.25779051409802    1.93959292396952
N         1.88030042631448   11.22899701016084    0.35554722605197
O         0.09541913618525   10.76077108660911    2.54263663584122
C        -0.83886512597948   10.26921196534647    3.55910510924415
C        -1.22215114103200   11.46258047294723    4.43648414303577
C        -2.03293951129423    9.73771993170587    2.77375238569783
C        -0.17804743219939    9.17817752170655    4.40020343573184
C         4.81502377823426   10.83360397188745   -0.27828966013912
C         5.54149730018164   10.17953948247667    1.91758619456126
C         5.28502438551968   12.51968700736491    1.37786270208313
C         5.28516876654987   10.41336389714108    3.37758650995970
C         6.08249622608608   10.24869915002828    4.48938229877494
C         5.29737765935016   10.62917466667064    5.59831660149596
C         4.07112183431558   11.00678707071384    5.10104697005089
C         4.15605212442318   13.49647407354745    1.48080540434481
C         4.01231213203493   14.78984200671485    1.02730607239718
C         2.76234562044118   15.23963952074756    1.50727029706755
C         2.21920857176911   14.19651901276491    2.22205251635565
C         1.61820883111189   12.30242844188212   -0.38284645437805
C         0.63717407597631   12.33804236910198   -1.35783154188273
C        -0.11905425341386   11.18951318772103   -1.58007491248958
C         0.14113796188685   10.06873316413953   -0.82637197024826
C         1.14843053576161   10.10815137384328    0.15256608049170
C         1.47963027076371    8.99626983056003    1.01941121114331
C         0.85266003522665    7.74263107549350    0.95241282327209
C         1.22126990700992    6.74000022199977    1.81610196497675
C         2.21493328805679    7.01863743508656    2.76577215912196
C         2.78527482667643    8.26771576771008    2.78914678836179
H        -1.90210268201724   11.15792455290652    5.22738099903379
H        -1.69815109381716   12.23132127382320    3.83196026179200
H        -0.31575930556268   11.87895072145822    4.87587519862074
H        -2.80709702862922    9.39884610140938    3.45659801802895
H        -2.43559540316497   10.52140412470994    2.13726384740040
H        -1.72372612013356    8.90626729650812    2.14493329838314
H        -0.78911047013678    8.95030446251257    5.26853925751988
H         0.80087887097865    9.53399652923976    4.72878029166012
H        -0.04205631082226    8.27220222601399    3.81426195000093
H         4.31065792702996   11.61165802012030   -0.85417381089320
H         5.85519658005863   10.75958531111369   -0.63631645982254
H         4.31674263172504    9.87770491995126   -0.46891751802293
H         6.62158351525472   10.26175094227018    1.69691619796638
H         5.22091895076148    9.16799850235678    1.61743028071975
H         5.99426779180965   12.81621869591596    0.59061235424636
H         5.82890690517400   12.51418977798271    2.33380580091231
H         7.09867663395715    9.89884590992793    4.50887663943265
H         5.60732722911493   10.62739248804040    6.62628694821365
H         3.19853055981257   11.37278906595699    5.62207411476586
H         4.71376320778004   15.34971935143878    0.43506140818651
H         2.33022054648459   16.20942950984400    1.34391004383234
H         1.27349302648506   14.13941471803972    2.74056875569834
H         2.22609146115610   13.18160972534888   -0.20091553022426
H         0.46525934069570   13.23806393390998   -1.92547085705778
H        -0.89646863909178   11.17886413373710   -2.32966001447853
H        -0.43596988070059    9.17163624603960   -0.98081634345885
H         0.08607837211784    7.56193206668831    0.21555081763072
H         0.75831963125250    5.76646007440469    1.77021880720044
H         2.53399520098235    6.26252863663824    3.46538591919942
H         3.54822691172959    8.50270359880486    3.52423422303476

