53
CSD_code = BAZNIZ | q = 1 | S = 0 | Stoichiometry = C20H30F2Ta(1+) | MND = 12
Ta        1.91549311356476    3.29497706483769   10.10291513544425
F         3.79428680576532    3.72792388800179   10.24894765103227
F         1.11146340416339    4.84174276357419   10.94536970800275
C         0.41075230157854    1.79774490067152   11.52582677709449
C         1.03899997831290    2.58485525844680   12.51895756533877
C         2.44832252465717    2.38300369918997   12.42300234179357
C         2.69408292671578    1.40068339922590   11.41733404133366
C         1.43119835065628    1.03777095067166   10.83633231123464
C         2.60493131318222    3.58194636384902    7.74950766302533
C         1.84783121143483    4.74038303391117    8.10805473321216
C         0.48215966558061    4.34823687238316    8.26617477766027
C         0.40129728709572    2.94361254463410    8.08661395952761
C         1.72607211965737    2.45748561600969    7.77332701671814
C        -1.06553905648211    1.57142404155750   11.42530029505866
C         0.36703636495930    3.44847024189472   13.52924568971483
C         3.48012479138920    2.96336113547081   13.32882403204650
C         4.00517804571945    0.71403193735259   11.19976694567355
C         1.18153468097452   -0.26336441275009   10.13359741820457
C         4.01310474526793    3.59359638594290    7.25404011022050
C         2.35185252649921    6.14465353020172    8.10851567397487
C        -0.65258711382560    5.29708524902566    8.46406905126264
C        -0.87093233045926    2.18352278913516    7.88028558457453
C         2.04182596933852    1.14275918276766    7.12668887452215
H        -1.40690280199813    1.01081189268582   12.29656309865672
H        -1.60816273537665    2.51527654156319   11.40573705050672
H        -1.32366038433892    0.99773777554441   10.54065078344695
H         0.64239960171702    3.12854989146768   14.53379010720888
H         0.67856200031198    4.48626325673629   13.41142100766527
H        -0.71320840966526    3.40004688327416   13.43154372263352
H         3.77329892148674    2.23232742729349   14.08332036165379
H         4.37045602354620    3.23830420067785   12.76517507595966
H         3.09994126497142    3.84780679982857   13.83284363878247
H         4.17834337679618   -0.01147838860590   11.99556615423438
H         4.02912590579070    0.18585204419281   10.24959601803706
H         4.82216920739311    1.43325831561506   11.22082578205019
H         1.06421571962905   -1.04810812853988   10.88307580494390
H         0.27076417027829   -0.24071414883633    9.54150082738600
H         2.01425319857785   -0.54269230317416    9.49399239587771
H         4.04343259905165    4.00586476207623    6.24495596647556
H         4.64154701580981    4.21618257683593    7.88840486218044
H         4.43294720819434    2.59168384244564    7.22778581981909
H         2.24732429358035    6.58401573757234    7.11569597379538
H         1.78732654565683    6.75334407758299    8.81189932511517
H         3.40378675318271    6.17491643380439    8.38525417171672
H        -0.77053122810156    5.91961047493384    7.57708836558194
H        -1.58623569521843    4.77104714427335    8.64046475815232
H        -0.45844493025013    5.95648690103305    9.30893867371089
H        -1.22640428888480    2.35586771226658    6.86287889024318
H        -0.72888948529699    1.11303975052399    7.99915745718665
H        -1.65045846182637    2.51454611477486    8.56230486655427
H         2.09057684229691    1.28231489347353    6.04555146623308
H         3.00728341647661    0.75767353597865    7.45003628021395
H         1.27895473045517    0.39735754669457    7.32758393730380

