42
CSD_code = BAZSEB | q = 0 | S = 0 | Stoichiometry = C20H17AuN2O2 | MND = 4
Au       11.48702884717691    8.05525240923835   10.41011006130072
O        12.95618048555521    8.59741863570371   11.66533608643298
O         8.49185875735269    9.58343831263685   12.81647535018180
N        12.79718356326105    6.99529222186439    9.30437664109908
N        10.36088204129890    9.09150976460436   11.61642189729774
C        10.14285947960851    7.73831715369739    8.98808916996228
C         9.31964518783351    8.74287418019552    8.49700118816503
H         9.34642782793548    9.72364516941753    8.94812125475093
C         8.44885772393280    8.50039875457822    7.44640561873579
H         7.81415835630415    9.29466001232298    7.08331568164730
C         8.39354471156333    7.24456519815029    6.86920766467683
H         7.71328113791230    7.04811350932273    6.05424297357673
C         9.21973271456833    6.23849640473124    7.33677388009112
H         9.18611430692753    5.25645844446149    6.88635280163486
C        10.08966241214765    6.48399381255513    8.38918856654831
C        11.02250470864301    5.40087049733608    8.88026789112071
H        10.83730688940154    5.22072007903551    9.94424771551050
H        10.85448914638031    4.47058845576582    8.33745109882769
C        12.43719272523017    5.85177168574538    8.70903967425522
C        13.34894829981086    5.13531402703496    7.94478113844163
H        13.03664475989543    4.22026961943087    7.46654169242569
C        14.64746524862919    5.59543851676224    7.81310442995568
H        15.36571660837495    5.04767555006810    7.22266655112365
C        15.00710714861709    6.76819666476319    8.46272006372825
H        16.00966842508712    7.15855801910967    8.40269250511890
C        14.05092335938373    7.43869110113927    9.19599366899933
H        14.27783186585614    8.33921887523849    9.74606012954376
C        12.53800430935328    9.63957437892672   12.39526591714212
C        13.42227220086247   10.37900831809414   13.17084844165757
H        14.45629285714507   10.07170022072644   13.21777848748538
C        12.96958313109751   11.49886444778885   13.84554327832591
H        13.66271643786325   12.07831199400068   14.43838810537525
C        11.64553546556624   11.88513517000034   13.74697787782915
H        11.30067761248210   12.77215852306287   14.25697157219945
C        10.74534050605847   11.14087024552827   12.99916780389169
H         9.71336752845007   11.43917579279557   12.93917659853670
C        11.18196051637108   10.00178206644172   12.34335658491030
C         9.08189395734627    8.86934591631334   12.02975908822576
C         8.39498453264947    7.63042642322730   11.47857773177619
H         7.58391717309777    7.38008008598240   12.15842687673345
H         9.07781832550948    6.78928785122710   11.39936087950603
H         7.97131870746470    7.83953149097274   10.49981536125643

