51
CSD_code = BAZTAY | q = 0 | S = 0 | Stoichiometry = C14H30N2P2PtS2 | MND = 4
Pt        3.05166633035637    3.05128035332099    3.54932088847389
S        -0.72202442548080    3.05443075018748    6.30552962175605
P         4.91618309691596    3.05176986772773    2.20731310478770
N         1.69901479878914    3.05075727136267    4.98844167491515
C         4.78759005707149    3.05183748020873    0.35929062220363
H         4.19859245643937    2.17039429896599    0.09283960683795
H         4.19856339284589    3.93326868514796    0.09286786129792
C         6.09014317240484    3.05187829222665   -0.43082614895427
H         5.86381022697552    3.05176330559933   -1.49564309037380
H         6.68785056042230    2.16958953195527   -0.21869523422150
H         6.68769979746613    3.93430574727984   -0.21884709655010
C         5.98150865426493    4.50187224628585    2.57977805913834
H         6.45186977591543    4.31719134612101    3.54853364167119
H         6.77063143845674    4.60112739135761    1.83154511990165
C         5.11886728869878    5.75678665262913    2.65615338505348
H         5.70903753246089    6.61391068767669    2.97181635181299
H         4.32110208576906    5.60037575394507    3.38769533937340
H         4.66733747041424    5.98466996416731    1.69174419677899
C         0.66531964183534    3.05202066080415    5.55392570311870
C         5.98160073032866    1.60169825453624    2.57964823679194
H         6.45203603668020    1.78637885515811    3.54836589068022
H         6.77066152050901    1.50243649371564    1.83135512629151
C         5.11892542433226    0.34680952292544    2.65607965214305
H         5.70905239994224   -0.51030760502562    2.97183677480511
H         4.32112095450542    0.50330459485717    3.38757786419363
H         4.66743525569469    0.11887589604335    1.69166508868407
P         1.18738642530529    3.05154860970392    2.20722398334326
C         1.31594396664351    3.05172446054103    0.35919891772040
H         1.90486200689716    2.17025385553376    0.09266526732471
H         1.90502407782860    3.93314200720583    0.09285203661706
C         0.01334682515188    3.05193632666172   -0.43084296217282
H         0.23967735963417    3.05194468599388   -1.49565845168262
H        -0.58441083685595    2.16965321384746   -0.21882559574254
H        -0.58415665237635    3.93437457331875   -0.21875682618457
C         0.12206246586819    4.50160064723684    2.57985757575570
H        -0.34816940293873    4.31692831088009    3.54867999425346
H        -0.66716202250002    4.60077183362921    1.83172657091513
C         0.98460577864456    5.75658476771484    2.65607556001355
H         0.39440995472494    6.61365577226136    2.97183836672236
H         1.78248901808492    5.60022025949316    3.38749774338760
H         1.43596844801990    5.98451279067988    1.69159955421714
C         0.12194458528040    1.60149739466208    2.57957982998948
H        -0.34848131612167    1.78614922846431    3.54830984740687
H        -0.66712319496194    1.50234249034884    1.83128264800268
C         0.98450156679588    0.34652795033750    2.65590014373104
H         0.39428083992786   -0.51059231810115    2.97147988953366
H         1.78223978190108    0.50287526855337    3.38748774633591
H         1.43606319563773    0.11869711044611    1.69149524973133
N         4.40439406150004    3.05112487622661    4.98844878568358
C         5.43825482569686    3.05163650416307    5.55373104270244
S         6.82575256819788    3.05246308101780    6.30514084178397

