29
CSD_code = BAZZOS | q = 1 | S = 0 | Stoichiometry = C6H18ClPtS3(1+) | MND = 4
Pt        4.41543153387119   21.95252611385912    1.05944269213308
S         5.21290801196646   24.08116630393517    1.70773170976801
S         6.25586124191185   21.42662722386272   -0.35137977705520
S         3.31605878527946   19.88798512005921    0.56906087695152
Cl        2.66970749482198   22.54602569382580    2.38785067216507
C         5.74230555225651   23.66634774340282    3.39391969836668
H         4.85415757912598   23.42882989452424    3.97232973339795
H         6.23042792530334   24.53959582453727    3.81770218068860
H         6.42358364216997   22.81982636254092    3.38286331065604
C         6.84886045066384   24.37478992911162    0.97734196397510
H         6.72271476388478   24.52030426969903   -0.09055304262751
H         7.51714393455807   23.54091910634764    1.16640333884811
H         7.24586639908394   25.28468258611301    1.41991868745219
C         1.66406575871361   20.40923318001621    0.04744189985770
H         1.75901471418623   20.93884059243075   -0.89614569587864
H         1.23384898102816   21.06104548835468    0.80256808091521
H         1.05848673063961   19.51737838178188   -0.09002207789664
C         5.45889620013546   21.15382655911598   -1.95604044460133
H         5.00235726627962   22.09082040331073   -2.26166120626209
H         4.70787327256264   20.37309411545237   -1.87408184351024
H         6.22549800439152   20.87157877456582   -2.67267130370943
C         6.74187099742483   19.72361896615453    0.03919832118129
H         7.14848169572795   19.71538079788331    1.04567162301331
H         7.51425408841843   19.42584403193446   -0.66480473503507
H         5.88635435941933   19.05835256708338   -0.02875787932040
C         2.93355197753153   19.21008740499295    2.20209012324453
H         3.86637769003832   18.89720958983479    2.66215483346584
H         2.28365236598662   18.34985476476116    2.06648709082684
H         2.45148858260409   19.97490821055707    2.80514116900758

