43
CSD_code = BAZZEG | q = 0 | S = 0 | Stoichiometry = C19H19FeNO3 | MND = 8
Fe       -1.63404493051519   -2.31862547876828    9.07670642513732
O        -2.14153266521883   -4.70768931835358    7.51806723165967
O        -3.68153083495720   -3.17817621313440   10.93838542855483
O        -4.07102490438467   -1.98991980515838    7.78378388771470
N        -2.70808809987006   -0.20320511199305    7.51737569560197
C        -0.68450436254346   -0.45367210986706    8.76103490585769
C        -0.67627349596143   -0.69831160608454   10.16409365507855
C         0.24098674581355   -1.78169159610708   10.40586533289440
C         0.71795285838096   -2.24188865798810    9.16373277268369
C         0.10795032580945   -1.45310902376003    8.12591328866854
C        -1.55670286383102    0.52421612343395    8.03935334321237
C        -1.23924524513146    0.19777130977955   11.22584332786243
C         0.68990519402889   -2.24540598239922   11.75377087139322
C         1.76876185315141   -3.28199363723138    8.94814055469557
C         0.49842016754471   -1.46863691259319    6.67851305363572
C        -1.91990576975392   -3.76664319617163    8.13140599335914
C        -2.85740440338626   -2.83149424615809   10.22366674851233
C        -3.01582355982628   -1.44817200940933    8.02721104706610
C        -3.53079255328973    0.44120917450433    6.56631317046356
C        -4.17735063616072   -0.29617900292351    5.57688563693015
C        -4.95841209695049    0.33965209691247    4.63126007175341
C        -5.09818107899955    1.71737675188250    4.64405318814562
C        -4.44733908084066    2.45550018012918    5.61604218671956
C        -3.66864967010724    1.82734722265235    6.57144680372319
H        -1.88101707253590    1.31171077712895    8.73015077530419
H        -1.02318634400935    0.99419733561074    7.20523705506973
H        -1.48885507594791   -0.37045831513854   12.11830270878224
H        -2.14218675378028    0.69674696252768   10.88313410670977
H        -0.50515183588710    0.95757037744081   11.50188430611930
H        -0.10790226592276   -2.14807015654383   12.48581836705085
H         1.53551551583428   -1.64324462141444   12.09171681209173
H         1.00444559425934   -3.28568380630262   11.72547783161192
H         1.75476646111464   -4.02554939039745    9.74111137439955
H         2.75529292928421   -2.81478619876202    8.93686718323225
H         1.62476233701646   -3.79004470502450    7.99795657790446
H        -0.30005529990055   -1.07275168853277    6.05579934220482
H         0.71651282423413   -2.48046192862020    6.34601595219489
H         1.39259174048563   -0.86110936773634    6.52441158847460
H        -4.07338162502461   -1.36841748649242    5.55913629824390
H        -5.45554348176388   -0.24766051882751    3.87366993211672
H        -5.70891106321604    2.21128467507293    3.90344196887701
H        -4.54725855049400    3.53105341385882    5.63809148247550
H        -3.18090892674749    2.42671569095928    7.32441171581274

