35
CSD_code = BCOCFE | q = 0 | S = 0 | Stoichiometry = C18H14FeO2 | MND = 8
C         1.23768659257812    1.91614448080524    3.78892883649213
C        -1.10711339436366    4.30129911640111    4.37960163437950
C         1.14438710448978    5.01491332591254    5.48484375390756
C         1.46174546424214    2.01763003806499    5.19486446339554
C        -0.07469942048012    2.13757333680362    3.27963048572249
C         0.30884463603817    2.36491305476902    5.95942100004963
C        -0.16079801197551    2.48877295567050    1.84122176265293
C         0.40100078464695    2.74581559391885    7.38983521063028
C         0.27885823949105    3.68810966915947    1.48387011555472
C         0.78594427805681    1.95822750831428    8.38756912131352
C         0.86321169562994    4.60388699850868    2.49743104204016
C         1.29804935962651    0.59735428628446    8.27226937564587
C         2.13770601457958    4.35604293348331    3.01916925335469
C         2.34386375778575    0.21334009278840    7.54283977913961
C         2.88827878339164    3.15962409244714    2.59045936737810
C         3.19037408663574    1.06482760403021    6.71703032874706
C         2.40518016798579    1.95564290919575    2.86706789144108
C         2.82217872290890    1.87247686999102    5.72289183360973
Fe        0.57464691930223    3.75167129373900    4.42792466266007
H        -0.90968886350062    1.55868627900787    3.66496643467355
H        -0.61985691595482    1.82795573010455    5.76173195911302
H        -0.59758273919848    1.78863844966799    1.14241706749115
H         0.00739248027366    3.72717816176796    7.62219575775079
H         0.24430523764180    4.04680747752290    0.46386198452112
H         0.69283518447673    2.31522716265893    9.40730585174997
H         0.54028123914539    5.63911385847405    2.42319104545298
H         0.81843815147510   -0.12505427796897    8.92310851098400
H         2.74106138896749    5.20243918916667    3.33055189233277
H         2.68730326693524   -0.81276017294943    7.61965575804566
H         3.78704618285694    3.31880831512053    2.00837968077083
H         4.25017007475565    0.96215435501484    6.92537016715978
H         2.82673909090675    1.02763705419492    2.51040672648025
H         3.59380900094942    2.38207199660125    5.16016675760908
O        -2.20172078423408    4.63075556787711    4.32646479520869
O         1.48762222393433    5.86937469345103    6.17065569254174

