57
CSD_code = BEAMNI | q = 0 | S = 0 | Stoichiometry = C28H22N4NiO2 | MND = 4
Ni        8.49315055748068    5.69198803105655    8.15137454140057
C         9.50070553294676    3.39572971669968    6.88563829791628
C         7.80394084299708    4.42207897414808    5.69267835540058
C         6.97233077824503    4.31695507864092    4.47235568436370
C         7.50251184907922    3.70943524419209    3.33724162696390
C         6.74965179294250    3.61269108397441    2.18256420366233
C         5.45638583718126    4.10962548884879    2.15167175494990
C         4.91658732885217    4.69975315835417    3.28238624908935
C         5.66940300832937    4.80733763659538    4.43748887058422
C        10.48111063512073    2.28326370768762    6.87668662087302
C        11.48558012931697    2.23489798143309    7.83993806521125
C        12.40533673439363    1.20368220473566    7.83396966444800
C        12.32866142627969    0.21195940015054    6.86933366758658
C        11.32897233061800    0.25380518943193    5.90976008592063
C        10.40790246893354    1.28377237178329    5.90996482351250
O         9.50960622786182    4.17301021605631    7.88539811417549
N         8.70755609135561    3.44513827332971    5.82851609942364
N         7.64505840954171    5.42116065997154    6.52037714109815
H         6.94357058295401    6.10389765739205    6.23052630371083
H         8.50941223998787    3.32579113967874    3.38161056103695
H         7.16986562202407    3.14702071711810    1.30327270002952
H         4.86721813416835    4.03228245542447    1.24982407309775
H         3.90406350330005    5.07589154371245    3.26486769984115
H         5.22675089151933    5.24693858265308    5.32064343969976
H        11.53544274138200    3.01510536308876    8.58438267966561
H        13.18448763566950    1.17066601992913    8.58164300585370
H        13.04764663634522   -0.59438281694046    6.86612833802094
H        11.26975463457270   -0.52190270154440    5.16028587088514
H         9.62019132821434    1.33325854320585    5.17565256588965
O         7.47685477331268    7.21110428481221    8.41733300797920
N         9.34144242346206    5.96295504486385    9.78223717389565
C         7.48559612534070    7.98820405776129    9.41723703774346
C         9.18294444619844    6.96229214757574   10.60970282463078
H        10.04307663311085    5.28034523710838   10.07201052365087
C         6.50434852730502    9.09991226703411    9.42677576136220
N         8.27905214564332    7.93900193105693   10.47413835906487
C        10.01509474612131    7.06779097550880   11.82963690646973
C         5.49917385043783    9.14737338767464    8.46421041671688
C         6.57743538037342   10.09956971348573   10.39333155524388
C         9.48557151430128    7.67570625274741   12.96480567279146
C        11.31794832352871    6.57734913021547   11.86401231524073
C         4.57859516589945   10.17786188428025    8.47069596437750
H         5.44960957775370    8.36722505861884    7.71969477234710
C         5.65555175575723   11.12882088724844   10.39404108560684
H         7.36558527735041   10.05070170008101   11.12722275906946
C        10.23917058413548    7.77304823908808   14.11895928758753
H         8.47855539103445    8.05907696317690   12.92095061098157
C        12.07156256357334    6.68571048910955   13.01850119453359
H        11.76067139239971    6.13851616863045   10.98019844706488
C         4.65514576694894   11.16975252410688    9.43517885127891
H         3.79903573161669   10.21030815903525    7.72341519680326
H         5.71449128716784   11.90448593455769   11.14356967421916
C        11.53260120328232    7.27653635208443   14.14913209759021
H         9.81952917521204    8.23907575458077   14.99827510298458
H        13.08454183579442    6.31048402408281   13.03518986709394
H         3.93542530647233   11.97543074060003    9.43889630505085
H        12.12243316485373    7.35450977006392   15.05046612430907

