27
CSD_code = BEBBOA | q = 0 | S = 0 | Stoichiometry = C6H12Cl2N4O2Zn | MND = 4
Zn       -1.14110697154799    5.30915403082049    4.69633611428128
Cl       -0.01790807913093    6.13354151237467    2.93553404391314
Cl       -2.56136285481583    6.52945455380631    5.80999911367967
O        -2.54560155858433    4.31415739517273    3.48530991743085
C        -3.30654566538519    5.17705744514723    3.01510640454587
N        -2.99454319713898    6.02438038336227    2.02212026585997
C        -4.04039222944892    7.00379845570780    1.81171537033037
C        -5.13209115548875    6.57352649570482    2.81624368680601
N        -4.60094563156273    5.34023382568334    3.36263777133500
O         0.09244368732623    3.83570323467099    5.28507620112688
C         0.60145058254027    3.19273289729597    4.35446345670721
N         1.86804481865339    2.73260261128602    4.35737051148456
C         2.18532269065140    1.98587887503786    3.16049392477300
C         0.93490301706160    2.21954946691316    2.28697508228243
N        -0.00114540891675    2.80007496337076    3.22453603143814
H        -2.01620281437323    6.21326764301939    1.82384620911946
H        -4.39515698053511    6.95318312193847    0.77798104085217
H        -3.67650076078414    8.01467725942597    2.00979508892600
H        -6.09126323304791    6.38722788257964    2.32704572212150
H        -5.27202776392813    7.31828430643537    3.60579973547914
H        -4.92151616482490    4.99077589497524    4.25053489633800
H         2.49640550917485    2.84842050847565    5.13107144036817
H         3.09537417444824    2.36758027604452    2.69145527145350
H         2.32682534763102    0.92395579398785    3.39231153839639
H         1.13986223603687    2.91626734524109    1.46693729555025
H         0.53789991076916    1.29077614282307    1.87208001653107
H        -0.88922150477716    3.19453767869188    2.94882384887057

