125
CSD_code = BEBHEW | q = 0 | S = 0 | Stoichiometry = C54H62N2O6Zr | MND = 6
Zr        5.69512380394582    6.98884463353148    0.00007129974296
O         6.51604229561515    6.69988572306068    1.81839259086529
O         5.93650331585254    8.95498971308835    0.37472138640479
O         3.94734802539118    7.17416612135281    0.98627157807061
N         5.04448198180707    8.76580949871187    3.02444550837672
C         5.78278291587253    8.07168364898703    4.10017468518859
H         5.68470345616600    8.65402474346023    5.02190758879260
H         5.29893463100900    7.09734859974661    4.23756718199940
C         7.22724081044299    7.86358191685098    3.74331092177815
C         7.50865694606135    7.09072418421076    2.59488363717014
C         8.85290315936443    6.70073625709858    2.38521398976366
C         9.84164695294024    7.20134895838514    3.20926542476318
H        10.86754768466403    6.91134509163519    3.02435337657533
C         9.57048704398692    8.04971491073908    4.27971694717371
C         8.24668533955574    8.34612416468478    4.55080932612930
H         7.99595446203086    8.94791945066232    5.41473628061386
C         9.16885672162089    5.70043328883640    1.31443458345193
H         8.56079136550420    5.89834416520852    0.43118129767910
H         8.92445927322682    4.69552929579462    1.66404626806141
H        10.22437871368669    5.72857314175438    1.05154254284889
C        10.68634786230133    8.59242348686420    5.12283209102919
H        11.34364924047081    7.78959254208111    5.45322574555475
H        10.29689512182623    9.10568199220839    5.99864023790291
H        11.28695846314887    9.29866440684132    4.54917098738637
C         5.52828474435506   10.14883114020215    2.83215957098928
H         5.24343858182669   10.74251504092337    3.70666902897250
H         6.62205499572727   10.09563216665981    2.77524749771390
C         4.99407005267783   10.75912235630499    1.56744078387181
C         5.31055471834928   10.11642622343980    0.35006596154865
C         5.00860864273896   10.80563432526708   -0.84865267971694
C         4.29937892469638   11.98919017962909   -0.79124348611696
H         4.05761906057203   12.49510169292312   -1.71664965559252
C         3.89755135562765   12.56770952753714    0.41004438233202
C         4.28311365366701   11.95013134590372    1.58623371516381
H         4.04452334248540   12.40763495259175    2.53762704373048
C         5.52106106805685   10.27165402389536   -2.15220344177769
H         4.97002326671013   10.69201345450037   -2.99108575968312
H         5.44253350614126    9.18408727717159   -2.16395346484501
H         6.57626568691041   10.52692246892344   -2.26684303373509
C         3.10982827589996   13.84451403038342    0.41271691615897
H         2.17814317702835   13.71945515227417   -0.13800581317716
H         3.67455075665889   14.64305277698824   -0.06763518205448
H         2.87301210735993   14.15233562409905    1.42818872129946
C         3.58387450018572    8.72136620469805    3.24491684301520
H         3.12682741653381    9.33259883583592    2.45761656794041
H         3.36494043572197    9.16947620005699    4.21940872323565
C         3.04720486463506    7.32048805203215    3.16181808206087
C         3.22029103777557    6.62860581469827    1.94251187514337
C         2.52249785768404    5.40791869162557    1.78098775286705
C         1.83134583641084    4.87414254408085    2.85086152854211
H         1.31992754941400    3.92972279293809    2.71933425537389
C         1.75052529082727    5.51046195230148    4.08686938793227
C         2.34236205371872    6.75438983868332    4.21393387074064
H         2.24187911283170    7.30609086905246    5.13963250079547
C         2.49213024882956    4.75189790183730    0.43342744680931
H         3.46610354073319    4.84761077961215   -0.04753141734486
H         1.75946951061799    5.25094265131462   -0.20373441860329
H         2.22096411621737    3.70124958483359    0.51536980166078
C         1.01351479100037    4.86994033051030    5.22577124869516
H         0.01095860185413    4.57671346261092    4.91775422927219
H         0.93250331798672    5.55221349993252    6.06843940528624
H         1.53460872673824    3.97210334967279    5.55864164821073
H         5.23960669347239    8.24101372639557    2.12430955947062
O         4.87412643079479    7.27771700307061   -1.81820971591140
C         3.88157516191515    6.88705775533901   -2.59486831184900
C         4.16307345338668    6.11420743655954   -3.74328031128716
C         5.60755982353461    5.90595918695872   -4.09995334644078
N         6.34566882999776    5.21167290726071   -3.02419159859269
C         5.86155705928420    3.82874888897002   -2.83197405499382
H         6.14630158032940    3.23503417894327   -3.70649834694557
H         4.76779451622771    3.88217982463574   -2.77510823928167
C         6.39557506014254    3.21825422727244   -1.56726939262804
C         6.07930061520774    3.86101205833684   -0.34986624989288
O         5.45379676737794    5.02268079512723   -0.37446899567643
O         7.44284065020833    6.80356128902144   -0.98627304547356
C         8.17017695609002    7.34872530133297   -1.94252247139474
C         8.34329671201018    6.65655797051748   -3.16165815976311
C         7.80629344014670    5.25579622394865   -3.24463208509381
H         6.15064197235895    5.73650130232857   -2.12404941805988
H         8.26319550954162    4.64451246583828   -2.45728730151047
H         8.02515891037413    4.80756731669694   -4.21908621434204
C         9.04848671026101    7.22226869326227   -4.21375936864860
C         9.64059624388323    8.46607728084467   -4.08685462203526
C         9.55959757952992    9.10273924431703   -2.85103200396140
C         8.86810126587640    8.56936768024089   -1.78118533848094
C         8.89815139913033    9.22578019713504   -0.43381513847432
H         7.92373770386895    9.13119450155489    0.04646703430650
H         9.62981840902722    8.72619448415193    0.20406166348669
H         9.17043387159782   10.27612662361178   -0.51590374312253
H        10.07124196054361   10.04705141064336   -2.71960697548741
C        10.37812065775610    9.10612327323090   -5.22568927755589
H        11.38098984766974    9.39831256311322   -4.91768467087803
H        10.45841851668189    8.42394021208379   -6.06849766597205
H         9.85786940305749   10.00453291479174   -5.55832041909253
H         9.14904115954240    6.67032313371257   -5.13930370226590
C         6.38115887618448    3.17172170697101    0.84882259453389
C         7.09003028992353    1.98795232931631    0.79136369512498
H         7.33156057798375    1.48189125404253    1.71675166914075
C         7.49151852609671    1.40925986749748   -0.40995391140965
C         7.10608767525891    2.02697919426534   -1.58610909134800
H         7.34443583785214    1.56938560313830   -2.53751887889312
C         8.27910119340457    0.13237084135751   -0.41266529713884
H         9.21389262494197    0.25935209522129    0.13279465019507
H         7.71682296654246   -0.66469085934361    0.07340773934955
H         8.51061540649763   -0.17869985743213   -1.42857551223343
C         5.86891111519662    3.70582469416663    2.15240515660839
H         6.42013524250194    3.28561670056231    2.99123820812911
H         5.94733324528099    4.79339917120247    2.16400937209139
H         4.81375694513429    3.45046313637000    2.26727932897009
H         5.70568000713403    5.32367678591107   -5.02171980734530
H         6.09153378175933    6.88024906964708   -4.23722267898439
C         3.14368967622512    5.63183549769608   -4.55095953317233
C         1.81988586149811    5.92840764095763   -4.28005672783558
C         1.54866474720196    6.77671269148989   -3.20957416353827
C         2.53733886683829    7.27714382748733   -2.38533022224874
C         2.22131113676342    8.27736631290893   -1.31449767198583
H         2.82944754025831    8.07950991654301   -0.43128181808767
H         2.46553660704937    9.28231903732967   -1.66408704144891
H         1.16580673851450    8.24907114058688   -1.05155289979182
H         0.52277721633840    7.06687160374497   -3.02483002236170
C         0.70408343144542    5.38593615916214   -5.12339879471892
H         0.04685690789007    6.18887280209932   -5.45368545755813
H         1.09359575040110    4.87283610614877   -5.99927419374968
H         0.10338265437203    4.67960816351768   -4.54993773728544
H         3.39447936898653    5.03007824444486   -5.41489493920729

