62
CSD_code = BEBQEE | q = 1 | S = 0 | Stoichiometry = C26H32N3Zn(1+) | MND = 4
Zn        2.19737213335407    3.99324278930441    0.70087118533553
C         2.78893811990890    5.18358215450193   -1.73275691104499
H         2.14960613658628    6.06918758410590   -1.69090419335608
H         3.37663296910327    5.20811090705872   -2.66895544229779
N         3.64464722667344    5.15028408669777   -0.55802451458330
C         4.36998143475206    6.38049246219265   -0.23403425750581
H         3.66399292030490    7.21326715409886   -0.28607341287244
H         5.18416453405379    6.56450252746314   -0.94664484206588
C         4.90018657514452    6.23027215432768    1.16896264302004
C         3.99977436990896    6.17492240738142    2.22862586634488
H         2.94914670685838    6.37523068225021    2.04977980201632
C         4.44783545595913    5.93466846472681    3.51590888075735
H         3.74397005347156    5.90400783096251    4.33306508891490
C         5.79983521295975    5.75184624878412    3.75551630687495
H         6.15035885332849    5.56914121288621    4.75902183649337
C         6.70205587724323    5.82224070170858    2.70858860982858
H         7.75732137946002    5.69445348445938    2.89303667179476
C         6.25391836300844    6.05446408437483    1.41901587161126
H         6.96212155049558    6.10693602007441    0.60447229965414
C         4.51641801389461    3.99303463537799   -0.66520199360217
H         5.08073207286241    3.99296340889786   -1.61677339303893
H         5.21881963766561    3.99300215018013    0.17127703202758
N         1.94917500130386    3.99319880745135   -1.64362323638888
C         0.83782852486173    3.99326155785652   -2.60883078263697
H         0.23230811984715    4.87854863448051   -2.40089588748931
H         0.23218540730672    3.10806304937209   -2.40087566641763
C         1.27978928792485    3.99322741381310   -4.05163364212816
C         1.49721851489795    5.19047843417766   -4.72396998514460
H         1.30709345086127    6.12955850410657   -4.22325968289782
C         1.93403757013034    5.19099961764156   -6.03724063357591
H         2.09292105259574    6.12784649828201   -6.54888126068987
C         2.15829298737454    3.99316729720930   -6.69463597438435
H         2.49569099766206    3.99314387245239   -7.71931649106048
C         0.50696388082947    3.99294850050595    1.84103983658768
H         0.49818509438275    3.12049698208462    2.49030786042518
H         0.49697618399732    4.86637351656477    2.48898732673594
C        -0.75576884538214    3.99142288423610    0.98579757720132
H        -1.62883574203120    3.99133890622332    1.63851475902003
H        -0.81343310359249    3.10767851846000    0.35482809535309
H        -0.81463022494389    4.87410418874611    0.35345953187794
N         3.64445946905394    2.83593579734099   -0.55795589582611
C         2.78876559943495    2.80268847512415   -1.73269958427145
H         2.14930405550346    1.91717873106673   -1.69080652677864
H         3.37646073937939    2.77802977776296   -2.66889461323895
C         1.93392800883430    2.79536608967012   -6.03722122259222
C         1.49710836716548    2.79594607182349   -4.72395065906264
H         1.30689733987734    1.85689102686305   -4.22322628834485
H         2.09272805042537    1.85849721476389   -6.54884723646485
C         4.36957499312240    1.60564671504568   -0.23377852748146
H         3.66350613482265    0.77294970467206   -0.28596074070519
H         5.18390836655627    1.42152665163306   -0.94618649436116
C         4.89944471483932    1.75586030249322    1.16934700203551
C         3.99875985453203    1.81117959260578    2.22878243486359
H         2.94819897787342    1.61077190423134    2.04967122477455
C         4.44648312557489    2.05147139901476    3.51617687282921
H         3.74241208441345    2.08210343596246    4.33315728357661
C         5.79841303034756    2.23436301893375    3.75612514946622
H         6.14867176428787    2.41709821525306    4.75971762550264
C         6.70090363663070    2.16398318430901    2.70942905174030
H         7.75611636389191    2.29181324123857    2.89414763196230
C         6.25310579194197    1.93172214982125    1.41974423552994
H         6.96152177647460    1.87926696489018    0.60538439816094

