39
CSD_code = BEBQEF | q = 1 | S = 0 | Stoichiometry = C10H22CoN6(1+) | MND = 6
Co        7.14687300208240    3.51909366756187    1.55744836039356
N         6.85631759165106    5.44465188387047    0.93313429588699
N         5.64934876061421    2.86940755272221    0.37027097302271
N         7.36208003172177    1.58511666095414    2.09366366476619
N         8.66815543756087    4.07718450655421    2.80491031217352
N         5.22663576894376    3.84635872817480    3.89347274246498
N         9.04053064308360    3.13305069580751   -0.79123837279406
C         5.47710155261852    5.92630491253718    0.72385858313005
C         4.73767188888916    5.07842346629315   -0.30352670117839
C         4.43287447469045    3.67942737777086    0.21826894920003
C         5.31868292730408    1.50118366174845    0.79850121138018
C         6.61998939146200    0.77884450917164    1.11189974121123
C         8.70494258911481    1.03290603300318    2.31851725166947
C         9.46847728811396    1.80361925796342    3.38878499162175
C         9.85127158528939    3.20320751041598    2.92427160373164
C         5.93041123445676    3.76017988932604    2.98904901826239
C         8.36304799528876    3.27636330967892    0.12578835261430
H         7.29108145148698    6.08852999749024    1.59642954071530
H         7.36201786571671    5.56287745541785    0.05033331380340
H         4.95044144806697    5.88813475596428    1.68051427748407
H         5.49954912298009    6.96680173893516    0.38188595627411
H         3.79420490302957    5.56934289818587   -0.54044764481808
H         5.32182717558635    5.01696290831199   -1.22551235373704
H         3.94267770152473    3.75134460649514    1.19277987304573
H         3.74845767792525    3.17619555575471   -0.47501657754503
H         6.07256155743809    2.79781125831057   -0.56080878205792
H         4.69916352889754    1.56380198128645    1.69873593198930
H         4.75474730059781    0.96893677114567    0.02485137055747
H         7.22912744053693    0.69438409893461    0.20640698583511
H         6.42336162224275   -0.22881939576556    1.49379807774142
H         6.86042645543139    1.50843547981811    2.98451874733381
H         9.25640135707160    1.07268736779093    1.37539720476822
H         8.61741986077249   -0.01710088289265    2.62207324023565
H        10.38110189907077    1.25579573458337    3.62146088994548
H         8.87411691724065    1.86465035631237    4.30428001272517
H        10.55861940867796    3.63824906627004    3.63873248243321
H        10.33747360333856    3.14703911712751    1.94731928554336
H         9.01422302343977    4.99827367839617    2.53031021383587
H         8.27258651604152    4.19094182857323    3.74278297633482

