41
CSD_code = BEBQOP | q = 1 | S = 0 | Stoichiometry = C10H22CoN6S2(1+) | MND = 6
Co        5.84516551393418    3.77494914905909    2.21889587958780
S         5.72745522542419    4.01224552321630    6.62964066428922
S         4.93203238929484    1.61848262222179   -1.53148095334592
N         7.74398771277493    4.17579115090435    1.64851896639360
N         6.29068245013824    1.85353141508508    2.54397514748612
N         3.98805540365510    3.27763442517805    2.76621399449417
N         5.30719346733278    5.70578699074191    1.94791708432014
N         6.37995641453353    4.17499361781869    3.95511459070831
N         5.37444646897149    3.49381826871656    0.44123026801042
C         8.52153204652881    3.17197853669058    0.90186176584944
C         8.60644540796075    1.85423905701531    1.65955317684064
C         7.26285140049825    1.13908876028111    1.70633690093388
C         5.02987672484005    1.10259166641831    2.64067493696127
C         4.04036379085243    1.95827702863855    3.41379330996984
C         3.14123799966936    4.20272446739810    3.53052103145653
C         3.00090061503618    5.55058952001713    2.83592129352891
C         4.31003798246877    6.32764968897073    2.83581361243966
C         6.07303087308379    4.09264294958138    5.09822128920533
C         5.19296891180091    2.66405264285484   -0.38703510516724
H         8.24494192330307    4.38421679958352    2.51678678299781
H         7.75761854115521    5.02839104556585    1.08848953562366
H         9.53375760321406    3.55086740366739    0.72339484339373
H         8.03805841350774    3.01080260188643   -0.06379251509977
H         8.97403288327364    2.03073112714573    2.67329835395951
H         9.32255839934554    1.20781106937138    1.15307831999574
H         7.40426814851732    0.12782782634677    2.10494128834979
H         6.85510052082506    1.05236312570470    0.69625417683833
H         6.68933165922276    1.89230751542160    3.48808990260768
H         4.66128582868769    0.91620996210890    1.62748709005359
H         5.18215155135076    0.13815548670768    3.13663236904476
H         4.37972596804136    2.09386253895542    4.44516917184335
H         3.05109612375743    1.48900226114646    3.43383388187640
H         3.53411053418568    3.14718656509340    1.85587544275922
H         2.14839079711846    3.75640820324785    3.65928317940656
H         3.58262056290441    4.34131636089766    4.52044523841524
H         2.24991786900430    6.13468464764557    3.36706043731915
H         2.65135785135977    5.41033756179284    1.81019500152331
H         4.11883365480137    7.35571525361053    2.50942792601352
H         4.72087229027293    6.35710023771531    3.84702698764066
H         4.95207830533303    5.75286003566834    0.98878646077881
H         6.13726977201572    6.29767488993843    1.98434827070799

