113
CSD_code = BEBQOQ | q = 0 | S = 0 | Stoichiometry = C60H46N6Ni | MND = 4
Ni        0.00026591297556   19.17427169970034    9.69495127486425
N        -0.26357906206494   17.61146918459427   10.79973348173777
N        -1.71357625042378   19.86726754219345   10.25050164523527
N        -2.42112716712378   18.11044476873569   11.72753292093290
C        -1.37236307242518   17.34766081295837   11.54947667191807
C        -1.24674744393888   16.07175497364789   12.23192308203637
C        -0.01976000827543   15.59569952661473   11.87991735807053
H         0.44636817360445   14.67174045325413   12.16357041750234
C         0.57236162854325   16.54640497123312   10.99034074762501
C         1.81950534242346   16.38314431030690   10.40207833814452
C         2.33053482959846   17.31923726086844    9.51296776114165
C         3.58947900252866   17.18163906170242    8.84786212675092
H         4.24307615810187   16.34008812639858    8.97412927876615
C         3.74584514810951   18.26544197939250    8.03758388531310
C        -2.55858670805431   19.27282781269559   11.14145543607940
C         2.62090741344461   15.17990034902267   10.72683928542945
C         3.50149514498249   15.21105583138692   11.80946714140058
C         4.24423842976100   14.07913617074993   12.10285713927020
H         4.92792994782619   14.09677723659302   12.94013380771110
C         4.12931626992417   12.92104679908004   11.34457218209644
C         3.24879697879646   12.91195259758212   10.27365820706327
H         3.14860874592827   12.01770323944439    9.67463942524851
C         2.49004218182461   14.02812446446354    9.95230448644759
C         3.63128028974251   16.45659499944469   12.63324978781941
H         2.67077520294568   16.72528976873206   13.07213946128262
H         3.95341096518329   17.29224206960563   12.01236575609629
H         4.35386502255177   16.31726377587453   13.43342300122277
C         4.95320654485911   11.71549289257488   11.68282923184884
H         4.66310898403643   10.86190016437267   11.07560382659932
H         4.83486714427200   11.45450599402911   12.73333724834873
H         6.00939289564916   11.92014405574096   11.50847854564225
C         1.53979775853076   14.00833853446456    8.79345382510154
H         1.55596405078723   13.04148753110265    8.29692274680987
H         1.80614671436993   14.77775453478790    8.06907533007378
H         0.52357439129347   14.21148997020033    9.13057462742198
C        -2.23775955040783   15.47410029208679   13.10809329806061
C        -3.59867065107536   15.74022792467823   12.95271960233604
H        -3.92129077044298   16.40161452128346   12.16519818160658
C        -4.52487253338193   15.16335703572617   13.80038969830202
H        -5.57496918546280   15.38206518061062   13.66995851324223
C        -4.11390868937279   14.30883344332890   14.81022609894604
H        -4.83996349738593   13.85871230443219   15.47160370310867
C        -2.76523302585958   14.03126836514093   14.96801773533869
H        -2.43920787323730   13.36539466891227   15.75433935323021
C        -1.83443244885347   14.60637590207348   14.12551852430534
H        -0.78311564121258   14.40000442394702   14.26315433427905
C         4.84897169345453   18.59067115032743    7.15214686108083
C         4.65642271192927   19.36808501924768    6.00966393713887
H         3.66844072600480   19.73082528077201    5.77774920165871
C         5.72107598800421   19.67136353838273    5.18281522471765
H         5.55684814151782   20.27800861318491    4.30396110217404
C         6.99074242106322   19.20100644463241    5.47453785318390
H         7.82184157688877   19.44009613397278    4.82711567102081
C         7.19110602776862   18.42002862134558    6.60182990198636
H         8.17998236913301   18.05150426943042    6.83450498651600
C         6.13167752618589   18.11570420707813    7.43371851050903
H         6.29583299290570   17.52117163607372    8.32046563517365
N         0.26368045276899   20.73664511498505    8.58945773349943
N         1.71364687009078   18.48081340405006    9.13861448354370
N         2.42127063423590   20.23772614438121    7.66171577144412
C         1.37246033399320   21.00046746686412    7.83970866588940
C         1.24692962794720   22.27647975157103    7.15745031782116
C         0.01983192330666   22.75240304331771    7.50924942042751
H        -0.44629405707604   23.67636810857545    7.22562139471632
C        -0.57240017539227   21.80156250004335    8.39860683440592
C        -1.81964506004979   21.96471262699113    8.98668138786823
C        -2.33065088317334   21.02864860029014    9.87583617991069
C        -3.58953576393779   21.16631789128255   10.54103579474774
H        -4.24317774712716   22.00781755530888   10.41466875680678
C        -3.74576267110361   20.08267570088308   11.35155630881028
C         2.55864432644401   19.07525903547236    8.24765298065727
C        -2.62114154899759   23.16784715226287    8.66174445466172
C        -3.50164613885042   23.13644443116311    7.57906238248329
C        -4.24449484355103   24.26824271657699    7.28547283149001
H        -4.92812283883471   24.25041139565251    6.44814990791806
C        -4.12976293324091   25.42644245841241    8.04361584636649
C        -3.24931835341327   25.43578487376872    9.11459006786956
H        -3.14927384563707   26.33012609419551    9.71349529754875
C        -2.49045580540261   24.31974339066896    9.43613852059975
C        -3.63122151319922   21.89078379789609    6.75543059251003
H        -2.67064961854779   21.62214329872149    6.31665080469268
H        -3.95331208487433   21.05517414770519    7.37638683379478
H        -4.35375473951630   22.02993902160236    5.95518229618504
C        -4.95377990947496   26.63184941177317    7.70514269181140
H        -4.66381065561923   27.48557145819223    8.31224628086643
H        -4.83543158779155   26.89268628930763    6.65459849261781
H        -6.00994944005945   26.42710168527259    7.87948319246139
C        -1.54028930540339   24.33978620942023   10.59504562598719
H        -1.55659577609561   25.30669629838504   11.09145415508510
H        -1.80660379062422   23.57043073204645   11.31949838163025
H        -0.52402218050353   24.13670127432871   10.25801917997126
C         2.23803298000807   22.87428899533269    6.28148732147593
C         3.59891615258376   22.60816960190558    6.43693701739961
H         3.92151076926892   21.94695601924872    7.22465806952157
C         4.52513538498644   23.18491518189801    5.58920290565960
H         5.57531976318906   22.96666503476401    5.72006557559964
C         4.11422679951845   24.03940075770138    4.57932143445022
H         4.84034555061575   24.48970949556238    3.91815631614639
C         2.76559956747882   24.31708429242810    4.42155461575749
H         2.43959264287333   24.98267389924234    3.63498092463099
C         1.83475163980386   23.74199258009761    5.26401967873910
H         0.78339034933524   23.94801938841363    5.12603939384249
C        -4.84879419557267   19.75756596253642   12.23715609182207
C        -4.65612803170744   18.98031794262336   13.37973328431178
H        -3.66811071590454   18.61764833425627   13.61162575645324
C        -5.72070990940234   18.67708343753851   14.20668876032989
H        -5.55640235534252   18.07050251598913   15.08558064915499
C        -6.99042812790576   19.14730095084641   13.91496670643953
H        -7.82147732197783   18.90822035934250   14.56245763054900
C        -7.19090882142673   19.92813228521957   12.78759098439052
H        -8.17981987079651   20.29657105644856   12.55493351172758
C        -6.13154599455853   20.23243412833228   11.95561193966237
H        -6.29579702482622   20.82683225869869   11.06879014786328

