67
CSD_code = BEBRUW | q = 0 | S = 0 | Stoichiometry = C25H41Sc | MND = 11
Sc        6.12863807458126    3.89721706737272   13.42753396886268
C         6.75938914628706    4.57543093249842   11.15394695243473
C         7.79075546062828    5.08100051480102   11.99957654213826
C         8.45537311103640    3.96731692842024   12.58171863712678
C         7.88367801195532    2.77975843436476   12.04539295661156
C         6.82871609323614    3.15978386195676   11.16211723658447
C         4.13847266983884    2.45414032359661   13.52207518871491
C         5.23865304745502    1.55380839848528   13.55751870995614
C         5.96490755802405    1.80639723923662   14.75888798926943
C         5.28585691464829    2.81923010848413   15.48615154703198
C         4.14684031557960    3.21772481024499   14.72117629397518
C         5.94353625894091    5.38511805026121   10.18705863951809
C         8.32547963431665    6.48140030324547   11.91766831208165
C         9.75087508403784    3.99545527533347   13.34439805001794
C         8.59757772371770    1.45605365948852   12.08383731311176
C         6.15645931698592    2.30259118970642   10.12419142043464
C         2.98648837879307    2.41168386593393   12.55636598369103
C         5.31757419469963    0.27900316682054   12.76321844937758
C         7.03437504740639    0.93458892033914   15.35782131705759
C         5.52232977494587    3.06782515783545   16.95048574541593
C         2.95780320134828    3.99126058153870   15.21474337230988
C         5.50620972776140    5.99293852533775   13.95993776439126
C         6.13504162617808    6.77919917566969   15.13326752494380
C         7.50361729787043    6.19059011055389   15.51116108126546
C         6.32500279927000    8.25538781701865   14.74876001337868
C         5.23047709193169    6.73263665254557   16.36864436948762
H         5.77580291016269    6.39616709930850   10.55296695598839
H         4.97478416722368    4.92232092941053   10.00256542968593
H         6.46309247001390    5.46147863366665    9.22812483530031
H         7.53311073201580    7.22732678734619   11.91612714761800
H         9.01275627187738    6.70305941002910   12.73024825023749
H         8.87865601609145    6.59358701576674   10.98141281744430
H         9.90229419212428    4.94636186806300   13.84988822886822
H         9.78967796638375    3.20379767186350   14.09255082630915
H        10.59066381408453    3.84412341571854   12.66097780597764
H         8.81944055189975    1.13605070329583   13.10112026419324
H         8.02817277759578    0.67682863538097   11.58445180074175
H         9.55242221716057    1.55354098328448   11.55945991944160
H         6.49997691482944    2.60548403968805    9.13173599731327
H         6.40281059054557    1.25240669371925   10.25371645217722
H         5.07125892856325    2.41358176041382   10.13839463402857
H         2.15173473948749    1.85593218274725   12.99079304290746
H         2.62733575243039    3.41351400890092   12.31820729052322
H         3.26334225992069    1.91907400064820   11.62669823495490
H         2.22008553468027    3.29495905433702   15.62288306461449
H         3.22174736562525    4.69523426095708   15.99809825884002
H         2.47630827449066    4.53883976247197   14.40602091906504
H         4.74609492122804    3.70123572689619   17.37128928752762
H         5.49272222017869    2.11530352489006   17.48491933191508
H         6.49302575286391    3.52165295928558   17.15552321726609
H         7.87194820301012    1.52098365425523   15.74065260607500
H         6.62196528208138    0.37043788399873   16.19904371946061
H         7.41211844021734    0.21618407475725   14.63490006241119
H         6.33632831463658   -0.08772228130011   12.67292581188546
H         4.89398412459383    0.39346250670418   11.76904404143337
H         4.73626423257599   -0.49022321895491   13.28071084669521
H         4.41293395520371    6.02745768533366   14.09372201346831
H         5.69995523143920    6.57450300066499   13.04466169035960
H         7.42503437786724    5.10277304698382   15.63823746979427
H         8.23049442095888    6.39889320820898   14.73103090110508
H         7.86973550158602    6.62600140948033   16.44073508739036
H         7.00496755948332    8.35487909874058   13.90595066128254
H         6.73742654079026    8.81963086344427   15.58401042375874
H         5.37014636139685    8.70127481230832   14.47670541979129
H         5.66489581992040    7.30932250190318   17.18426885711376
H         4.25147571174532    7.15249983900231   16.14473576722336
H         5.10708101958549    5.70833971529648   16.70353522862005

