28
CSD_code = BEBVIN | q = 0 | S = 0 | Stoichiometry = C14H10FMnO2 | MND = 8
Mn        4.06426919490414    1.34376807046636    1.99371113695077
C         5.30632975644357    2.96318444464682    1.29906969221739
C         6.09824822323233    2.04402805977133    2.02325380774666
C         5.61387790800856    2.00305420608066    3.35465838046031
C         4.52197719361791    2.88077678074241    3.44846100764413
C         4.32327349665095    3.47303432448613    2.17606815898738
C         2.55291104208599    1.65406189540211    1.11625796378767
O         1.57652151896791    1.89839013440323    0.55603569453629
C         4.57819761128772    0.04283265757123    0.90199033367509
O         4.95667105646567   -0.78486273477578    0.19585007195361
C         3.23518624688570    0.15364303914106    3.16319609460211
F         3.52181611414987    0.38745102807585    4.47411137630550
C         2.34623572661745   -0.99479987262283    3.06445570057851
C         1.86987494641926   -1.42926067291193    1.81417328157601
C         1.03361933502312   -2.52004318057234    1.71969426864150
C         0.64719464895287   -3.21111573263119    2.86133369378017
C         1.10439875158052   -2.79811496617211    4.10190356688859
C         1.94119295934769   -1.70539483162558    4.20700555427288
H         5.50815434281747    3.32102436465908    0.29880581671951
H         7.01927921716247    1.59343417475066    1.67538323006878
H         6.08810108447757    1.49103686149473    4.18099291063291
H         4.01147767281413    3.16185712979416    4.35950110983331
H         3.65674253050842    4.29955712407821    1.96452132588471
H         2.17078246534276   -0.88971471494391    0.92410206752687
H         0.67690635608956   -2.83984260749925    0.75242435532725
H        -0.00673210048556   -4.06647513378713    2.78173447254975
H         0.80681599836184   -3.33136771672955    4.99264298422578
H         2.29057670227001   -1.39494213129256    5.18016194262661

