45
CSD_code = BEBWUC | q = 0 | S = 0 | Stoichiometry = C18H19N2O5V | MND = 5
V         5.82369287571579    0.54890692578066    5.58140077363780
N         6.99805722204666    0.67432688135830    7.26652530078662
N         6.58519316968397   -0.10512030740706    8.27728925869170
C         8.03728151769713    2.19891524047110    5.13015494826207
C         8.58416117571426    3.02260919891621    4.13270703344531
H         8.29266577835267    2.84327363737035    3.10768928452654
C         9.45734695528016    4.03530774415426    4.46055630697734
H         9.86143836584237    4.66394022120838    3.68104735007139
C         9.82626070948258    4.25573594344029    5.78625053596007
H        10.51313783857306    5.05179772481269    6.02842772660344
C         9.31392247548114    3.45631517433601    6.78106931797870
H         9.59423332921534    3.61828975344579    7.81185580517239
C         8.41347848530732    2.42488332842892    6.48188623461099
C         7.89223304103424    1.57396292513299    7.50259665590638
H         8.26257757237275    1.68941024832553    8.52331041475838
C         5.60138743307024   -0.88778433482963    7.88004038984904
C         4.95900710222117   -1.78902386176494    8.83957195123035
C         5.36315834280246   -1.86006071236328   10.18644928035451
C         4.70497166694255   -2.74844512620032   11.03978219168448
H         5.02730750669116   -2.79202287503841   12.06818254332763
C         3.67576936207783   -3.54013840821449   10.57831143442141
H         3.18072842297542   -4.21966540077910   11.25591234472969
C         3.27129256843070   -3.46740583347802    9.25030070467391
H         2.46273766049565   -4.08668260322863    8.89395002264663
C         3.90948094642936   -2.59849397167855    8.39442127315872
H         3.61388039479244   -2.51753722797106    7.35802270674274
O         4.96400246061513    1.71803656873277    6.05345916674288
O         7.22463158874571    1.22752736927898    4.82417575221014
O         6.35524637128141   -1.11833504760986   10.69414165462807
H         6.70603881458156   -0.53560934888539    9.98369966524286
O         5.23016055258360   -0.87338750304640    6.65838613880199
O         5.23346868574103   -0.24329669815682    4.31449948122548
C         4.36471276601977   -0.59335435512310    3.32287127933949
H         3.36116418502876   -0.69983335987323    3.78124132863895
C         4.78142627155849   -1.92791372844587    2.68892519298267
H         5.75235482902377   -1.81854277633904    2.20838114763677
H         4.05057770310223   -2.24330074055687    1.94943960738611
H         4.85770385834688   -2.69086642976955    3.46174003528902
C         4.31413461950008    0.53958558156481    2.27553527061464
H         3.72644929462352    0.20135252096621    1.41957761775153
H         5.33978575722093    0.72933002542101    1.94552538571862
C         3.71923104498132    1.81446466083175    2.86144134565473
H         2.67559492358985    1.65883352069689    3.12962327569896
H         3.77346072530238    2.62440001198661    2.13759364275596
H         4.27175362942075    2.10731544411115    3.75943122146930

