28
CSD_code = BEBZIT | q = 0 | S = 0 | Stoichiometry = C11H10F3N3Ti | MND = 12
Ti        6.45048327274645    0.42095619986617    3.00890112882164
F         7.10667742281966   -1.52554799579901    1.00360795453011
F         5.00198981082588   -1.57260436551811    1.57064773002607
F         6.51433395714631   -2.47445475978902    2.84115148277636
N         8.22945951489099   -0.01927549336497    3.28758645732245
N         9.26337761970408   -0.18810808828342    2.75648264015515
N        10.29118759089133   -0.35472543024406    2.31921534698527
C         5.98090810786868    1.02086934226208    0.75967355794255
H         5.67613308625440    0.36801383406939   -0.04772813008078
C         7.30638612211239    1.41249305970255    1.04339403527609
H         8.18808203584830    1.08855791364590    0.50320378590494
C         7.26014852122274    2.40062588438652    2.05315900858588
H         8.10560969368288    2.97267423282807    2.41792093601451
C         5.90655628365288    2.63185200115548    2.36825939410221
H         5.53432335331887    3.43427771182694    2.98898719161334
C         5.11668958156316    1.76025126534978    1.59226211025099
H         4.03686943803666    1.77535578077555    1.51308330421076
C         6.14019262488804   -0.74342606924517    5.04132938437029
H         6.64382629747505   -1.66313095736443    5.30932555561248
C         4.88808144894535   -0.64134908011516    4.38781646032215
H         4.25144855629782   -1.47289340945169    4.11138150522496
C         4.53086941266160    0.72014247738476    4.34680346896793
H         3.57028764156657    1.10975237812704    4.03520746234108
C         5.56469995923471    1.45924060971312    4.95834284366174
H         5.53530132098091    2.51141780950378    5.20456728220344
C         6.55650036843444    0.55734981845512    5.38717255128416
H         7.43459176266390    0.80641339894770    5.96984418942997
C         6.26688519426882   -1.37542806882462    2.07280136214460

