61
CSD_code = BECCET | q = 0 | S = 0 | Stoichiometry = C23H15AgBF15N6 | MND = 4
Ag        9.92234704177372    9.00237600861086    4.03230929473121
N        10.14158479481372    6.27265194484328    2.44013129969057
N         9.28767550978645    7.28736026680427    2.52944946200462
N        10.98940750080252    6.13804383489222    4.71441939914723
N        10.35493905570816    7.13360090928520    5.31979776750317
N        12.43942316344539    5.28532591434944    2.83650815558253
N        12.10836416879363    3.99825950192156    2.83494860002638
B        11.45663186300218    6.36338386170726    3.25299139293846
F         7.38067268318961    9.09962823876401    1.39284852019549
F         6.07388789715107    7.42319094605880    0.95053316571620
F         6.28169144134865    6.85727446316640    3.84910062929501
F         5.16965652752046    8.56342253336047    3.15949608048384
F         7.14190702858621    8.82823013471195    3.97253642243565
F         8.36017864647613    8.41125325194735    6.69704229187393
F         8.47248223146925    6.98174431316741    8.33611638365898
F        10.85183807576546    9.31355917714127    7.20495124577101
F        11.15025572735992    7.85959532779564    8.76378137441080
F         9.63731608430780    9.37411311511467    8.97760746416829
F        12.82765746474879    1.23066273616441    3.50118288270554
F        14.36785666654158    1.34917375551476    1.98100786745714
F        12.40451265328250    1.99169595535633    0.08886993387284
F        12.14863216503995    0.08425950282064    1.05149691090996
F        10.88891458191616    1.74049270976604    1.59127009947386
C         8.19267622609744    6.92733346531340    1.86127895305080
C         8.34185781903309    5.64534586406877    1.33136488663731
H         7.63497948481930    5.09395774917984    0.74884685817275
C         9.60823037247492    5.26794765869586    1.73708826117379
H        10.13668304851683    4.34967933368640    1.58426757459687
C         7.02505706229702    7.84994278562105    1.80718695327836
C         6.38154649556919    8.02264438205363    3.21349413618731
C         9.92854925100597    6.66880685116127    6.49184384167535
C        10.30372509833634    5.33495036694839    6.65239498146330
H        10.10770306188456    4.69694644059747    7.48763229579130
C        10.97408531636162    5.04057655674985    5.47863354114615
H        11.41683449879466    4.12301018141829    5.14852982496156
C         9.21192409738034    7.60720942065659    7.39856672336455
C        10.21883254306999    8.55351463983548    8.10944804398047
C        13.18987504617160    3.32967075948301    2.45928791112760
C        14.25655943925181    4.20279172157003    2.20361646334959
H        15.24343821758316    3.94459512131415    1.88436079772895
C        13.72413408036371    5.44505509271771    2.46061239311806
H        14.17065502379893    6.41575310021012    2.40120853140246
C        13.15794422302127    1.84584833612159    2.33397408832815
C        12.13392942021425    1.39821992221607    1.25817198809037
C        12.07675903730922    7.84847194381000    3.09347802949968
C        12.00460056895866    8.52938687571959    1.87113105062462
H        11.53540870414499    8.04782131703615    1.02434914036599
C        12.57558458594689    9.78100010598228    1.70250491572070
H        12.51948022317624   10.27097563942748    0.74116663201383
C        13.23380109736983   10.39416345162815    2.75571973694277
H        13.68532612363526   11.36636484996468    2.62348833638059
C        13.32955506561395    9.74035517043076    3.97304518241157
H        13.86743692533379   10.19674885729002    4.79105152485681
C        12.76305029210766    8.48514449427458    4.13770249988457
H        12.91004521203237    7.96369237491691    5.07394301203571
C         9.56489943720081   11.15366939563347    3.40911596579059
C         9.70675007668013   11.14899678467257    4.75579937831984
H         8.58403611012024   11.14774017521923    2.95140860671136
H        10.39239545999729   11.42861351933327    2.76685206155031
H         8.83910418240393   11.12462507697865    5.40341901578917
H        10.64891409909784   11.41473181477852    5.21811921842755

