60
CSD_code = BECDAQ | q = 0 | S = 0 | Stoichiometry = C31H18ClF4IrN4O | MND = 6
Ir       13.16032210268186    9.93616095502771    9.95731765314756
Cl       15.59885504730705   10.14275778047431   10.18323741396912
F        13.89706287823491    6.60364031977926    5.62873662381783
F        13.29697871748765   15.25638987475046   14.32133727119368
F         8.02209495990925   10.91232404826846    8.29626463156085
F        19.00570243642036    7.26372232129192   12.47652971884725
N        13.43983429600446   11.65721683748212    7.65520311724475
N        13.32333202802006   13.05382514243211    9.28673940837057
N        11.76452885033060    7.42267717828658   10.22589152501066
N        13.74450174337889    6.94106184994391   10.91807145232633
C        12.83756698527380   10.55291111043425   11.71588656593560
O        12.58698671157602   10.81692842859718   12.80265114195833
C        13.30293910115825   11.73771207502620    8.99493093919444
C        13.53293495735397   12.90508966103616    7.10678109234757
H        13.64988675582781   13.08335120611577    6.05854676624409
C        13.45215097841171   13.78647297194634    8.13194389500142
H        13.49960063119699   14.85578420475136    8.13976971599419
C        13.53418865983446   10.38194159579889    7.07273831931274
C        13.72758296139770   10.20342425226920    5.71302843244031
H        13.78895904388301   11.04767744806576    5.04334568518928
C        13.84824213275862    8.92088670582770    5.20957282816459
H        14.00008434274496    8.73713669594309    4.15841821446655
C        13.77757251749904    7.86859861123422    6.10027839774211
C        13.58038230649034    8.04907031991496    7.45813267205146
H        13.54469343400444    7.16275938178996    8.07486433346233
C        13.44832588038651    9.32455704027023    7.99939467407095
C        13.30634167427502   13.61224161750679   10.58227127093841
C        14.22951318946664   13.17322093067254   11.52554762068861
H        14.94705612461286   12.41057228545683   11.25781185227867
C        14.22525931521203   13.72593313026758   12.79262480454017
H        14.92848242343541   13.40379456832401   13.54343160571870
C        13.30190176322628   14.71301123874492   13.09000031958332
C        12.38521351910700   15.16773094660665   12.15773695586610
H        11.68271661606268   15.93995482714910   12.42728856883328
C        12.39104220976214   14.61050480123812   10.89281316523898
H        11.68014762596460   14.94190468075560   10.15088784087928
C        12.97277667453998    7.96514073370351   10.51155850105725
C        11.78130216269791    6.07356231596880   10.44849488083253
H        10.93735144918353    5.43672043380253   10.28622224719354
C        13.02955263988706    5.76891704096744   10.87697694557555
H        13.45738046946857    4.83216561241752   11.16903855642458
C        10.75713176578528    8.26431894359827    9.73090493201050
C         9.47304231311515    7.82195324872808    9.45572429143793
H         9.19326034434115    6.79249600070883    9.61718041550258
C         8.53861156898264    8.71678247802304    8.96595110263702
H         7.53077990797110    8.41030867243696    8.73834555588310
C         8.92684924653786   10.02849035348413    8.77178387432116
C        10.20909118027083   10.47619290832268    9.04508161513423
H        10.43806553236202   11.51647376214213    8.87008443276034
C        11.16415428698713    9.59620809280828    9.53379549405904
C        15.09589377615755    7.03015940572773   11.32067813340648
C        15.47190464171387    7.95594911274201   12.28542918504612
H        14.73136026023540    8.60701249092563   12.72187268908919
C        16.79383077595095    8.03925123122976   12.67734772443651
H        17.11320363991959    8.75723262200685   13.41467402676395
C        17.71822425898564    7.19348700836366   12.09112217030397
C        17.35987352858439    6.26475868481077   11.12998861863102
H        18.11080268378088    5.62935739367820   10.68865811577306
C        16.03536635888863    6.18573016036458   10.74383637444136
H        15.73500561296073    5.48458424956698    9.97962362365063

