41
CSD_code = BECMEB | q = 0 | S = 0 | Stoichiometry = C16H20N2O2Ru | MND = 9
Ru        2.14721602046192   10.37390569756666    4.19306653372437
N         1.46470951886230   11.87508343447645    2.76252864139033
N         3.49227786719914   11.41892227394141    4.91057944745685
O         3.32562727393216   12.63508494235823    4.97628139686246
O         4.40437559125276   10.81429607605174    5.44828661711318
C         3.45205526315903   10.09903557637690    2.65850058827398
C         4.27315837960935    8.99732785064804    2.48625574597166
H         4.27977455289330    8.20429757900870    3.22227299565867
C         5.12300549497820    8.90245918712419    1.39322943198900
H         5.75769999598236    8.03537446478394    1.27780131584563
C         5.16554822315111    9.92197211767998    0.46216841213320
H         5.82790231367647    9.85535201948854   -0.38854585436525
C         4.37044076281449   11.04484224000022    0.62898794919911
H         4.43353329672061   11.84628106629055   -0.09166316796827
C         3.52132899195963   11.13911576325399    1.72011117679669
C         2.66064062610668   12.35650484453366    2.00779402255714
H         3.20997726288930   13.00128077859944    2.70763746128063
C         2.33348218640564   13.18064224278385    0.76108307362973
H         1.57857364646907   13.93443443335814    0.96968464543073
H         1.99542554415531   12.55047932682186   -0.05800391034198
H         3.23066107223267   13.70293543938832    0.44187792677598
C         0.76791019220988   12.96996764008423    3.43543491619234
H         1.45423571768639   13.45708676148745    4.12870237867430
H        -0.07996415136282   12.57024715285176    3.99396606193936
H         0.38664678326854   13.71225645531880    2.72687964365526
C         0.53633879633151   11.19306167532486    1.85542729883727
H         1.06956654113391   10.41136799104398    1.31086922029621
H         0.09813729333694   11.89444545240422    1.13789710863611
H        -0.27990225794646   10.74342255079383    2.42289865002757
C         1.70621244486347    8.19797240951516    4.55592107999659
H         2.09914003696666    7.33842085294515    4.02234583349141
C         0.39244596788759    8.64317733294010    4.26172410057184
H        -0.18222323528736    8.16330962669015    3.47812868017695
C        -0.14673807561651    9.69671239291336    4.99911931793350
H        -1.15554637888746   10.03970808677635    4.79161720088189
C         0.54790719476729   10.23931874006748    6.09773748723228
H         0.08710166273841   11.00737390811951    6.70452838069379
C         1.77797503830476    9.68195800432556    6.47788157513958
H         2.26055304923250   10.01821154348704    7.38904338899380
C         2.35783376585777    8.64793977440995    5.72982313987944
H         3.27345572960431    8.17861429396613    6.06682008733611

