36
CSD_code = BECNAY | q = 0 | S = 0 | Stoichiometry = C10H18CrO3S3Si | MND = 6
Cr        0.53580357559094    6.16995794678082    6.79011685228329
Si       -2.40930224142811    8.05595437098632    5.25396761533122
S        -0.98639903388296    7.68042062275469    7.94623095865981
S        -1.40481459111139    5.18685924587723    5.69261658749694
S         0.63717490767618    7.78211551155602    4.96347571552683
O         0.76450889669762    4.29278744450775    9.08066456508365
O         3.08127596333815    7.07060984915711    8.02790764186479
O         2.44756213974222    4.16187529028326    5.72502104497163
C         0.57181729490389    5.02161631980834    8.19517933730335
C         2.05477442624181    6.81620708117495    7.54470840930408
C         1.66587377693458    4.96184764934291    6.04340462370890
C        -3.87355929971783    8.99309602743483    4.49628622167206
H        -4.71700973980658    9.01425457256250    5.17612430226428
H        -4.20206052164306    8.52565099297565    3.57567974251248
H        -3.60535044014048   10.01807305141461    4.26963001362296
C        -1.72819896142625    8.93585703997143    6.81473197110133
H        -0.94000260041463    9.64034166234960    6.55563547540771
H        -2.49637121278314    9.46079645788478    7.38080354598090
C         0.03895822384226    8.78333433400087    8.94821897773391
H        -0.59111068471646    9.52257474941817    9.43766518681609
H         0.78704656388735    9.25814022847088    8.31897750237354
H         0.52703133984904    8.15452859128233    9.68658852203793
C        -2.89234757505743    6.27687996050121    5.78015574256429
H        -3.24667058435854    6.25454189660527    6.80902193974503
H        -3.65096021438182    5.83146114371068    5.13804660810865
C        -1.98044109689308    3.84793632869404    6.76377064070095
H        -2.88827462352018    3.41456967095491    6.35039446228666
H        -2.14808455135035    4.22985927131423    7.76729450326382
H        -1.18362037593984    3.11057901216451    6.78083367627341
C        -0.94853925917772    7.89256307780863    4.02375662972726
H        -1.03492202937710    6.98284392731413    3.43238896713977
H        -0.85925588077880    8.74237866880005    3.34854676091328
C         1.66379421228213    7.02974470632742    3.67804694891874
H         1.69024542662193    7.67885291016784    2.80567742434597
H         1.27118217501650    6.04803775428468    3.42644933538022
H         2.65734659527963    6.92875263135719    4.10418154757247

