36
CSD_code = BECNEC | q = 0 | S = 0 | Stoichiometry = C10H18MoO3S3Si | MND = 6
Mo        8.72639108198418   19.40112798637051   13.35728772724923
S         6.74535234083009   20.33936415904802   14.61893978298536
S         8.79899354628115   17.44517170299328   14.96098786327473
S         7.14579490107771   18.11215231784958   11.86068227453607
Si        5.77055170828704   17.43954829235345   14.50895276735949
O        10.65836461957055   21.07860761136045   15.04138969922439
O         8.78137887986542   21.72061931713812   11.35711245326937
O        11.21804116294069   18.35808280294000   11.91234076995058
C         9.92397873096110   20.43397676863128   14.45374005485855
C         8.71706677205126   20.86323149653627   12.10617384297024
C        10.26996334075530   18.70966592718903   12.43939349917554
C         4.26752745872111   16.44174690638303   15.09205079144338
H         4.50882014586923   15.38911264196409   15.17898554899489
H         3.44272775291529   16.53619750393287   14.39594296568226
H         3.92431962829572   16.78409925784313   16.06094702155151
C         5.30910489016707   19.28197791912604   14.23059187047402
H         5.04800100483086   19.46285401451551   13.18798924686530
H         4.48555562559145   19.61250875032733   14.86393725273305
C         6.24646582726079   21.84433836678281   13.76271862589860
H         7.05513693145368   22.55842789217966   13.89384536958708
H         5.33235399286925   22.22371092289580   14.21570329494911
H         6.10120691414705   21.63595124078272   12.70528659884784
C         7.18297508730631   17.37726561648079   15.80701468417041
H         7.13258629266907   18.23681491512794   16.47519338136337
H         7.17015463467636   16.46473652443670   16.40336765726703
C         9.83584690041898   17.94932916771454   16.34587485486723
H        10.84403570805173   18.05889390171580   15.95519885511596
H         9.81030304251174   17.17371620622069   17.10899101305803
H         9.48449191409050   18.89908667858372   16.74236892807497
C         6.45724736007342   16.74632775949540   12.85599429219120
H         7.26673768551755   16.03963170748013   13.03817370756357
H         5.69232204648102   16.25993925325252   12.25030077543466
C         8.16400966521125   17.16318723964782   10.71623383369462
H         8.66680713235497   17.88434073799706   10.07733399896795
H         7.52077061026366   16.51748946107250   10.12126912102094
H         8.89691466319778   16.58126703166502   11.27018557522965

