83
CSD_code = BECPEF | q = 0 | S = 0 | Stoichiometry = C26H50BrN3P2Ti | MND = 4
Ti        0.47857034154511    2.37698474315573    5.86148362370576
Br       -1.82650500538887    2.86854466168150    5.25141984368175
N         0.21056598259919    0.77372367507826    6.70575047180105
N         1.35056879005972    3.59030120013517    6.90592965441114
N         1.33865243739614    2.33209691197963    4.22309110905903
P         0.90633944787538   -0.46807572118976    7.29128091501995
P         1.34988485847229    4.81208813375055    7.84347990863372
C        -0.10828542025146   -2.01915346768507    6.82331136929959
C        -0.44118652829760   -1.88752263712411    5.33825732695642
H        -1.23206137754308   -2.58506870928871    5.06378772156675
H         0.41883462917838   -2.08888487359402    4.70540152515396
H        -0.79258039121682   -0.87162536734387    5.14221276601389
C         0.53273648666483   -3.36765760127632    7.12217970342441
H        -0.19497950562690   -4.15951501182296    6.94147221580851
H         0.84743490865953   -3.43364290093978    8.16172180202178
H         1.39003742820373   -3.55437098993963    6.47973165016965
C        -1.41905831275224   -1.88412513300877    7.60286963405552
H        -2.18243276929255   -2.52725034089520    7.16585197352755
H        -1.77350345477560   -0.85324374805974    7.54875912318541
H        -1.30070091513866   -2.17342890632562    8.64518110558775
C         2.75697481618851   -0.64992368637521    6.83192923778367
C         3.53262526599682   -1.67199322088980    7.65541321355655
H         4.56128849912261   -1.71300068305777    7.29536783620061
H         3.10918676605289   -2.66821955464504    7.57455628878499
H         3.55931739324052   -1.38540832869671    8.70287981870038
C         3.36335094537605    0.73761263951179    7.04083398781876
H         4.37309594504851    0.77182038989724    6.62950323003244
H         3.41802819950296    0.99121154575626    8.09776740563124
H         2.74551218846707    1.49427773224345    6.53674894289416
C         2.83184888170150   -0.97934826906000    5.34350972794539
H         3.84889549417513   -0.83723000673625    4.97562898347679
H         2.16670935732592   -0.30718609755183    4.79514106434483
H         2.54887871898933   -2.01121504213537    5.14628096703891
C         0.88873542313734   -0.51421567195006    9.17736176243572
H        -0.17531879490312   -0.48704813505473    9.42714790038036
H         1.32432361065240   -1.43675328053014    9.56102270873789
C         1.54443991722203    0.69101980749009    9.76154681287764
C         2.65855618780576    0.58958607897146   10.58927129122255
H         3.06790551064339   -0.38215641915435   10.82967243579759
C         3.23596804789634    1.72572885650808   11.12766454551783
H         4.09175545319619    1.63596830923402   11.78103334522729
C         2.72022105865789    2.97546143556035   10.83553655099810
H         3.17499661792758    3.85574668141721   11.26916645400476
C         1.60609796274550    3.10173675624382   10.01134621399872
C         1.01890777208443    1.95187934705178    9.49572686633528
H         0.12487892455973    2.03464971542293    8.88338371635051
C         1.02404653485015    4.42939186465835    9.66824303644413
H         1.41518557851088    5.22140806100753   10.30481379786951
H        -0.05929534286814    4.38257734767182    9.78518138286508
C         3.07345323088000    5.62735685267253    7.84859320066464
C         3.25984369761260    6.35593449186331    6.51957389749825
H         4.31783154428760    6.55237665073623    6.34325100673038
H         2.73794545474013    7.31022288660651    6.51212126134877
H         2.88498080748509    5.73745494070566    5.70367595759120
C         3.36251878488917    6.57112748136530    9.01108877641847
H         4.31832206294005    7.06654755816754    8.83736119937406
H         3.44142494409953    6.02693449413824    9.94889539445150
H         2.60065849206049    7.33816306985753    9.11373494744717
C         4.04266926079244    4.44663452520608    7.89636381950384
H         5.07332209415111    4.79726910527960    7.84434151919268
H         3.85203745272035    3.77905699091013    7.05688416117810
H         3.91445563457285    3.87428737174633    8.81295916019124
C        -0.04018723475093    6.06138081083329    7.41783731557859
C         0.06254187716275    7.42355336064585    8.09330473491353
H        -0.83627320282641    8.00033046284643    7.87391446705540
H         0.91689043102472    7.98931651846301    7.72940025125101
H         0.14136227704495    7.32066160183938    9.17403168527364
C        -1.34237171710869    5.37462232982322    7.84700427571097
H        -2.17771431954794    5.73320176273130    7.24719483562885
H        -1.57588237673350    5.57592272240908    8.89139875620576
H        -1.27004138906140    4.29126141856599    7.69774558581238
C        -0.04226294016163    6.20708955577918    5.89572156445867
H        -0.99582433787247    6.60745174771694    5.55311237102880
H         0.10648653483599    5.22448597579532    5.42772745487502
H         0.74482082439977    6.87500082587882    5.55438647470507
C         0.75302809698855    1.57803006330821    3.14068924108637
H         1.47331453455509    0.85715075710901    2.71076257823560
H         0.43214090408074    2.24444211306708    2.31905319575742
H        -0.12337589151368    1.02044607466432    3.49275736248893
C         2.55490802289608    2.98236365167791    3.80908003660515
H         3.30698686790197    2.24830959119984    3.46305337856732
H         2.97846519976480    3.54509579367563    4.64632780858157
H         2.37077581406292    3.67996435260069    2.97189935616860

