48
CSD_code = BECTEI | q = 0 | S = 0 | Stoichiometry = C12H26CoN4O4P | MND = 6
Co        1.74418273511918    6.09365572243775    9.27225507375624
P         3.45609519856443    7.60037440327078    9.20952661982371
O         2.73650333660079    5.05073965215662    6.86091611358279
O         2.44253198740467    5.29266702248929   11.95498759556481
O         0.84483171758733    7.21441380368746   11.68897055307416
O         1.02145434281625    6.87945937377103    6.59418729450291
N         2.73344867069788    4.95626303680760    8.14630184705304
N         2.57713443196333    5.09105954587865   10.62071452774221
N         0.73931286304454    7.21017898077722   10.40452328904996
N         0.84606116096004    7.04782590139693    7.92886678816536
C         4.31818207506608    3.07167674474925    8.06541960956625
C         3.45868882988914    4.07150664796971    8.77229303279240
C         3.36471550108120    4.15374923730221   10.20113861914038
C         4.12790598128717    3.24357016115326   11.10601625375797
C        -0.92633170997685    9.02350654859698   10.49406106206607
C        -0.05197643169690    8.04021909873566    9.78214030991176
C         0.00715393074876    7.93674663203996    8.35287746106658
C        -0.81826336737207    8.79641543095156    7.45326095336579
C         0.25569535645366    4.76900815096500    9.20167819798511
C         4.13101719613036    7.96532976605924    7.54771043528601
C         3.12938854174615    9.29238598277476    9.83688300009769
C         4.98173081009232    7.18346726224451   10.13806296364394
H         1.71742481735619    6.10393771222492    6.52802510215921
H         1.75626274281578    6.07786748361820   12.02322546967523
H         4.20435326127815    3.21602637931957    6.99315149869781
H         4.01751237341558    2.05723176293044    8.32205741949727
H         5.36686459151261    3.19631484609146    8.33391922014643
H         3.92435083952323    3.50454613923732   12.14102078535652
H         5.19696051103650    3.32428146546364   10.91542206470359
H         3.83112470571390    2.21068950266301   10.93173437562330
H        -0.79413703784590    8.88902227123588   11.56541135951647
H        -1.97276165952001    8.86198240399203   10.24041178487269
H        -0.66319626554549   10.04680945371358   10.22784182813927
H        -0.58425111307375    8.56946369802730    6.41661547118238
H        -0.62412827866036    9.85018657057465    7.64741096361263
H        -1.87626511536814    8.61031012015284    7.62990569333674
H        -0.66684567422152    5.18539680169463    9.60489032426393
H         0.49149870282569    3.86814347837489    9.76692618980528
H         0.06618782157803    4.47353452839361    8.16996426800578
H         4.97989478397792    8.64419804017745    7.61945304682092
H         3.35095653204530    8.41473291884157    6.93552661043618
H         4.44000932624708    7.03599644546657    7.07278421259845
H         4.02885445127699    9.90343694734274    9.77096263986572
H         2.80264433535210    9.23192700941464   10.87359195265758
H         2.33604760175802    9.74748292388747    9.24616670211584
H         5.71627974730015    7.98215865508410   10.04031329090864
H         5.39796978240882    6.25604020586912    9.74837072214453
H         4.73322505861071    7.04236312999258   11.18870540286672

