69
CSD_code = BECXEN | q = 0 | S = 0 | Stoichiometry = C34H26N4O4Zn | MND = 4
Zn       -0.00036644655913    0.00031219833839   -0.00020979602849
O        -1.47150245358068   -1.05869202349748    0.51793263748454
C        -2.39770162064412   -0.69517872795789    1.30636332020772
C        -3.75670004485199    0.36492674769291    2.76669657659740
C        -2.48354511183373    0.47903091195692    2.11436651534522
N        -3.52978898561563   -1.40992677477890    1.54989449618261
N        -4.34472297446222   -0.74135929677132    2.41605317593978
C        -5.13954852389333   -3.18855618645124    1.48245779940214
H        -5.71729916074114   -2.63850062750729    2.20727481964406
C        -4.80939103684671   -5.09588030114347    0.06366967868954
H        -5.14691117121680   -6.04962649097932   -0.31399483861005
C        -4.44546509546571    1.32942502768527    3.66268003142819
H        -5.51097460384469    1.11610432351222    3.65143087569829
H        -4.26778465863788    2.35066300785393    3.33421660680862
H        -4.08775341018327    1.23345053680697    4.68616905891857
C        -3.93757572952169   -2.64707299865081    1.03328902886595
O        -0.50635479197321    1.38544633042370    1.26641570966639
C        -1.46370282297917    1.44020828749279    2.08859572377362
C        -5.56882175657298   -4.40800032546706    0.99621352290660
H        -6.50128052817788   -4.82404712551824    1.34817921573404
C        -3.61574280445389   -4.55354851356335   -0.38143666202966
H        -3.01979459556348   -5.08299765740368   -1.11028013810670
C        -3.17206741280758   -3.33324737305183    0.09572284934369
H        -2.24326659292909   -2.91556300831457   -0.25496902230374
C        -1.45429686502330    2.57484340311983    3.04585445011823
C        -1.56555208043387    2.34932046696054    4.41413567921953
H        -1.67485752183940    1.33951446334512    4.78004751684080
C        -1.24565091813277    3.86736979938595    2.57536851884970
H        -1.13215623080864    4.02762634490930    1.51388373200592
C        -1.49987564468502    3.41168992454459    5.29701852904711
H        -1.57976143568856    3.23313652677777    6.35918467947363
C        -1.19697720073172    4.92759168535498    3.46154266496065
H        -1.04900386179685    5.93139626433948    3.09177748718737
C        -1.32752835696705    4.70179749112351    4.82219417572203
H        -1.28390282678733    5.52984928316010    5.51406549310075
O         1.47271318475705    1.05776380301665   -0.51592523439735
C         2.39826178380643    0.69463394727509   -1.30527468080304
C         2.48329107143643   -0.47896439384241   -2.11427580300919
C         3.75653189568577   -0.36514946808974   -2.76652440944446
N         4.34512387292979    0.74062692130972   -2.41524428166720
N         3.53065320781689    1.40900257403969   -1.54850028302632
C         3.93863470335657    2.64608416653160   -1.03189309263953
C         5.14064256512258    3.18743339769098   -1.48113038760076
H         5.71837364617572    2.63723540557123   -2.20585480890450
C         5.56992290008739    4.40698105387938   -0.99515024018998
C         4.81046128363945    5.09510534542115   -0.06281190145428
H         5.14797583916091    6.04894163268488    0.31462953583536
C         3.61677962778591    4.55290665546649    0.38236503779459
H         3.02079027217098    5.08255422001386    1.11103078985554
C         3.17310262998992    3.33249955287949   -0.09452068770238
H         2.24423591369457    2.91496484592237    0.25617183396454
H         6.50239332530624    4.82293718807217   -1.34719141755900
C         4.44477569332118   -1.32936512025111   -3.66321124718173
H         5.51034712893938   -1.11634491418158   -3.65209422548133
H         4.26688913037706   -2.35072473166856   -3.33523269438203
H         4.08683836238220   -1.23275038386273   -4.68655566143185
C         1.46245151494487   -1.43909143199334   -2.08986141606260
O         0.50401961708471   -1.38342290987126   -1.26900981993863
C         1.45322948800121   -2.57382828397132   -3.04705614064344
C         1.56478726921241   -2.34855998608228   -4.41534074175876
H         1.67410101969573   -1.33881569480044   -4.78142253915426
C         1.49945676278622   -3.41111625493739   -5.29803111312731
H         1.57960045616273   -3.23276153103439   -6.36021051736776
C         1.32716635454511   -4.70115174181013   -4.82299749605995
C         1.19631878197553   -4.92669089803919   -3.46233531629627
C         1.24463626847907   -3.86628249048540   -2.57635989830003
H         1.13091323634138   -4.02636963081497   -1.51487253126336
H         1.04838461877351   -5.93043890045279   -3.09239913206507
H         1.28382185030526   -5.52934753731691   -5.51471359063160

