71
CSD_code = BEDCAQ | q = 1 | S = 0 | Stoichiometry = C26H39ClIrN4(1+) | MND = 8
Ir        2.92016456325355    2.00256611533474   19.90248311073418
Cl        5.00899686858007    2.86781131421829   19.23434150016481
N         1.94003276547267    3.81418402167716   17.54409382186517
N         1.72451673486796    1.68162542241265   17.34789442929510
N         1.49971183782143   -0.56035934110769   16.85268602882029
N         3.03657314603450    0.18969134032957   18.50170930747971
C         2.22836239938788    2.66031300398466   18.14724587494142
C         1.24795634708019    3.57102273012647   16.38017699379386
H         0.91947199619652    4.36376195104104   15.73973966743073
C         1.10833991839258    2.23270549036087   16.25112460183604
H         0.65126899754786    1.63090367796591   15.49449596963290
C         2.35884287119333    5.11880200819687   17.97819420218503
H         1.49910895848299    5.71989173083421   18.27605927454303
H         2.87619754659612    5.62742574440738   17.16501413191022
H         3.04659808582656    5.00212797026210   18.81314254322655
C         2.07390538495265    0.35676380387074   17.57811666761229
C         1.90754827819462   -1.82346097556876   17.01570167843051
C         3.01516010581954   -2.07103799595154   17.81538079382844
H         3.42868923174309   -3.05972825179930   17.86690636648837
C         3.61005046947189   -1.02944487470900   18.53006432617553
C         1.13796767200421   -2.86625118193531   16.24950271181795
C         1.21226980444913   -2.50279342583435   14.75958613079689
H         2.24143250457065   -2.53393044747300   14.40928977091657
H         0.81750058402767   -1.50475068263379   14.59434957159649
H         0.62870779620531   -3.21239207338177   14.18006506591405
C        -0.32302383496967   -2.79641373664595   16.71917941622992
H        -0.71584895935179   -1.79269409226552   16.58217878725696
H        -0.40067869765446   -3.06393573062773   17.77105416213953
H        -0.92721117206788   -3.49100254646899   16.14274108814830
C         1.67967861321858   -4.27833598740076   16.46261972362842
H         1.06865338663450   -4.98280005620498   15.90457657688394
H         1.64305323076099   -4.56269151184952   17.51189011403332
H         2.70177956787151   -4.36703259322986   16.10208153645482
C         4.98165908814291   -1.20717386646094   19.14526506121152
C         5.39531760857304   -2.67766968051993   19.25958519565128
H         6.35041678795936   -2.73167958334505   19.77556991091013
H         5.52757814703642   -3.13927509510844   18.28459967197053
H         4.67249810279552   -3.25122774086632   19.83635749662915
C         5.12795095157527   -0.56193950770108   20.51979510019950
H         4.78341642208774    0.46905031822736   20.50342934713516
H         6.17672647717530   -0.55404178396450   20.80333767617977
H         4.57456222888609   -1.12724344006262   21.26261936661542
C         5.92018608205074   -0.49517724955299   18.15001059795753
H         5.72626989089237    0.57413361238070   18.14227366192707
H         5.79186488053341   -0.88540997653254   17.14229135587996
H         6.95087805382655   -0.65843282068715   18.45198849318092
C         1.15977815216152    1.53078226283445   21.22220816676910
C         2.29952806996327    1.03440310749848   21.97777310041024
C         3.17073791121827    2.10188168294476   22.21650856061562
C         2.58676105525566    3.29382214568892   21.61670848082176
C         1.28194753010069    2.93858828864371   21.11215323652711
C        -0.06355408780903    0.72896669769104   20.92595410865675
H         0.19239073646811   -0.28735246436292   20.63291499037338
H        -0.65146494910553    1.18311711647216   20.13158013756619
H        -0.69019472825440    0.67068977255232   21.81745458144731
C         2.34561432053384   -0.34071677221540   22.54939911721458
H         3.27984074491779   -0.52652184504290   23.07105345976191
H         2.20527417882791   -1.10128908996374   21.78224640242603
H         1.52998366688830   -0.44707130406862   23.26665503476351
C         4.41200547433798    2.11879630252596   23.04394988925809
H         4.21753441439928    2.63619705857832   23.98415123152893
H         5.21054329205483    2.65054959961727   22.52979622930436
H         4.75635935598954    1.11320904127052   23.26793646761247
C         3.10605114495999    4.66866775574331   21.86712061217704
H         3.01894240754690    4.89646229479827   22.93027145545432
H         2.55203605326426    5.41861327271477   21.31000259956540
H         4.15855132480957    4.73784489720163   21.59928604216537
C         0.20296763488764    3.87744593281480   20.68614853817590
H        -0.34519343488482    3.50199244800900   19.82449683299593
H         0.60009868882214    4.86038061569311   20.45278083952474
H        -0.50634068150174    3.98798717662887   21.50774100322719

