71
CSD_code = BEDGIB | q = 0 | S = 0 | Stoichiometry = C30H36FeN2OSi | MND = 8
Fe        1.95355910572097    0.86897045922978    4.12157468377243
Si        2.07557711013693    2.22595222630805    2.33758122700165
O        -0.86717581442815    1.42243869479034    3.95499978819630
N         3.62134921290008    2.15741409745585    1.44180248903900
N         2.38981216469256    2.24803806658390    5.42069344431915
C         1.76234917336463    4.11413772622025    2.65449786916707
C         0.72023779091765    1.85907584656468    1.02810661142652
C         4.85566129006238    2.26553141789183    2.05217034073549
C         6.01453130289836    1.81628389523881    1.40423017670160
C         7.24531411093948    1.88745161729027    2.02394767467034
C         7.36211723354941    2.40511477327787    3.30439144237661
C         6.22451312260080    2.85754194884253    3.95160998933957
C         4.98931308455223    2.79030302800955    3.33600573036536
C         3.63170981635366    2.30436703777446    0.04274346413662
C         4.19005457755142    3.45312509980284   -0.51674798701650
C         4.20691887215929    3.63237879715655   -1.88570123379507
C         3.66504995168880    2.66963548790433   -2.72195694219012
C         3.11186764027695    1.52540593741030   -2.17414137330909
C         3.09761252500339    1.34071952667142   -0.80353790739701
C         0.27670478313914    1.28612630224609    4.03073773579379
C         3.56572579059424    2.20750511494272    6.06939246608928
C         3.87062855882491    2.99305344179318    7.16201391526677
C         2.93531774804206    3.90523791781770    7.62791898869667
C         1.72752162948905    3.98124486845399    6.94712771855514
C         1.50290289995629    3.15143969339203    5.86875320684902
C         1.59587741182019   -1.13163124821273    3.38735740224739
C         2.98387821359632   -0.91521701533053    3.12835298625839
C         3.62766339139562   -0.67584094224496    4.36448736074696
C         2.65221161167167   -0.80522119770408    5.40577137613569
C         1.40664333776711   -1.10624566545043    4.80737864317471
C         0.57590287995412   -1.63612791927993    2.41385241560286
C         3.70532669888264   -1.13642093358135    1.84166442635226
C         5.11633421817435   -0.62306512580049    4.52007816222557
C         2.90849162497205   -0.83199607161235    6.88106389242835
C         0.16112182731495   -1.51050556119119    5.53123510766471
H         2.36211908809550    4.52459488985528    3.46000722566684
H         1.98236426247831    4.68743580998309    1.75818343341046
H         0.72169969650568    4.28731950316683    2.90576782009469
H        -0.24271133380964    2.13488452512059    1.44082651147236
H         0.86166180754765    2.42615285858441    0.11442026409759
H         0.66341667000355    0.81058576197974    0.76740698714335
H         5.93965778496904    1.40974599241948    0.40547572470311
H         8.12293061200640    1.53124392814442    1.50359624843198
H         8.32666884228994    2.46067260249664    3.78614412987524
H         6.29916385955181    3.28008661789295    4.94417031952491
H         4.11304646088999    3.16779272571361    3.83021191461021
H         4.61086074279669    4.20110301585463    0.14006372895165
H         4.64007811317099    4.52987774265328   -2.30345223859253
H         3.67668058179313    2.81041413800954   -3.79258044906666
H         2.69340631685684    0.76621769610307   -2.81950332132477
H         2.67637828859311    0.44491608692891   -0.38053108560128
H         4.29946693720720    1.52717857399272    5.67173395828027
H         4.83532799416227    2.89652666871442    7.63587628737385
H         3.14190707735372    4.53775142088154    8.47663306680409
H         0.96445055455036    4.68094337543276    7.24940925223910
H         0.57320923027114    3.20143736320390    5.32595529424731
H        -0.39358178103688   -1.17752727479523    2.59402906110592
H         0.86796981552083   -1.42127286123872    1.38985480056307
H         0.46395761036779   -2.71719678138409    2.51677603899781
H         4.28219538812111   -2.06186125828392    1.90544490792756
H         3.01169458110433   -1.23059607894255    1.01208738177710
H         4.39823882985344   -0.32671991188848    1.63195576167226
H         5.54613921846080   -1.58474885309361    4.23164579981322
H         5.55485054740292    0.13834120349129    3.87786915842828
H         5.41229008894649   -0.42641958353560    5.54830468986167
H         2.86917988671925   -1.86098559669397    7.24350044864805
H         3.88483810898374   -0.42384152168072    7.12919085115179
H         2.15360557818571   -0.25900249536749    7.41792195040151
H         0.08902954763527   -1.00580267512232    6.49145943787059
H        -0.72323663840479   -1.26802066233891    4.94882199346716
H         0.16512073432424   -2.58754828891497    5.71066735434142

