71
CSD_code = BEDGOH | q = 0 | S = 0 | Stoichiometry = C30H36FeN2OSi | MND = 9
Fe        1.54542812799779    1.61799737451894    2.55446389950131
Si        3.59498874544977    0.10031456302127    5.64224131051406
O         2.65831802651223   -0.92032029500168    1.76817309236847
N         3.72113406184351    1.23043284162643    6.97877845164929
N         1.92811488217487    0.16209918776849    5.08597586923759
C         4.60535153773018    0.68971846571680    4.15030216499510
C         4.00025203713607   -1.65592635058789    6.24130521933744
C         4.55838355650620    2.36027315189912    6.85969794604330
C         4.01511805730062    3.63864314071888    6.95074676446906
C         4.82126727364221    4.75193651013764    6.80569816041182
C         6.17760203546201    4.60370821786731    6.56642717902130
C         6.72550102926228    3.33457674928116    6.48908323384181
C         5.92302176393227    2.21764214777994    6.63940590065998
C         3.05138940207432    1.08927723512974    8.19734054498202
C         3.56442588097271    1.67868226734276    9.35505321023382
C         2.92073943752259    1.53109579840693   10.56812990559535
C         1.75757393592990    0.78649832360725   10.66180648234319
C         1.24678335252277    0.19148869759578    9.52085956807431
C         1.88050467559789    0.34000336123688    8.30202284893004
C         1.47586611211000    1.41572671673706    4.65491820406726
C         0.22556056180936    1.57143265678869    4.04345545931111
C        -0.12484963143516    0.49272306261388    3.20348393148033
C         0.27384683218251   -0.81753555071041    3.68174626759502
C         1.23555025004232   -0.93146229158303    4.61458163645675
C         2.20004259153950    0.05520061078533    2.18243672534132
C         1.29556340620001    3.70627731754084    2.33933923113643
C         2.70019344208377    3.45089631360687    2.30998317967622
C         2.94706515005540    2.56889558752290    1.24209300144776
C         1.69317545772176    2.31440738671400    0.56970513658711
C         0.69028972481530    3.05933035503633    1.22091629531483
C         0.66438369612930    4.73804428536044    3.21856882002410
C         3.68833773806310    4.08167561776505    3.23628966073872
C         4.27487320451212    2.09336767450971    0.74317488001215
C         1.54327543976974    1.51710443747458   -0.68514809183904
C        -0.74484592680761    3.16018591133993    0.81854807900504
H         5.06689952558602   -0.14649574645101    3.63670655929914
H         3.91076416613849    1.15494434334750    3.44847671739696
H         5.38206942535384    1.40533119718454    4.38728071543225
H         3.93640345674997   -2.37231704330985    5.42985644685518
H         3.33077866557990   -1.97978211646807    7.03168775478969
H         5.01027493378762   -1.69835188581135    6.63597116107137
H         2.95745207378382    3.74726776442043    7.14565226022725
H         4.38890580125372    5.73939276306661    6.87360995188084
H         6.80548929823376    5.47393458653182    6.44905990336251
H         7.78521430318635    3.21286073184211    6.31831030229781
H         6.34426916115808    1.22446390987020    6.60252325409941
H         4.47941216283089    2.25016663481000    9.30276473036364
H         3.33794581770217    1.99750256900963   11.44895150338915
H         1.25683408048678    0.67094511201167   11.61111426293982
H         0.33851671349056   -0.39122975086669    9.57647439575816
H         1.45625816495226   -0.11467351648122    7.42264538490692
H         1.88217566678273    2.22610342291374    5.24806987514762
H        -0.37261479036677    2.46149914324835    4.15482022512051
H        -1.01828297285148    0.55058184221915    2.59804642277989
H        -0.22099081486626   -1.69634108246958    3.30202945724169
H         1.53756597165782   -1.87984070231208    5.02558021758350
H         0.93364830612872    5.73828981442962    2.87408381185858
H        -0.42049092844987    4.66324468630813    3.20656250524249
H         1.01198113443550    4.63589779762930    4.24528896106570
H         3.71644538651264    5.16156705117039    3.08242641828804
H         3.42146372077748    3.90027932028671    4.27601048110166
H         4.68787367814802    3.68906112707562    3.07487971060170
H         4.55215421637158    2.63982166845298   -0.15986647253907
H         5.05181973672805    2.24287655451008    1.48768100525831
H         4.23830373995918    1.03472197280625    0.49754489825635
H         1.74238516635543    2.13469756649558   -1.56270991177045
H         2.23861981670162    0.68243769286344   -0.69016729256891
H         0.53563046187489    1.11881947831344   -0.76717839696271
H        -0.90444450316312    4.02430528341918    0.17121059391947
H        -1.05297608345998    2.26924677514009    0.27743304127648
H        -1.38638052779161    3.26805955531556    1.69026497648409

