170
CSD_code = BEDLII | q = 0 | S = 0 | Stoichiometry = C80H84N4NiSi | MND = 4
Ni        4.66231179076036    7.21860609576355    5.16515143534405
Si        9.34014619185206    8.09873670171653    2.86524626788812
N         5.40299156755570    8.66338472150722    4.10183777870700
N         3.86339418293055    5.72546242234519    6.15274950129234
N         6.24808021728813    6.14082685559025    4.78294494828268
N         3.12461016823829    8.34036150452613    5.62460538951802
C         6.65406145042392    8.73175900927522    3.55983159763731
C         4.75844919498584    9.80000202142662    3.69352751170857
C         5.61520146226611   10.58461886268994    2.85393217947666
H         5.34332043444686   11.52187350039740    2.40967070582114
C         2.79510279710607    9.55669866275964    5.09634739227080
C         7.74550001110442    4.40512365309194    4.78124080033748
H         8.10497685951919    3.40768663076648    4.93828316971183
C         2.74541320092361    5.74947760449696    6.93966766118131
C         9.85279966042618    5.56486277333775    4.05754795512900
C         6.79554952720046    9.93121240097515    2.78844440614283
H         7.68274705654246   10.22332508305952    2.26443320384644
C         7.67447720588452    7.79609135726032    3.68641271445144
C         6.40877020187895    4.81157903666649    5.05469690111211
C         5.80710335482691    2.51796498318495    5.71151955395849
C        10.43030227604679    6.67728126345122    3.43472796283487
C         7.45026419944234    6.56841244102334    4.28762719250874
C         9.16270396324308    8.05279713909895    0.97512869828688
C         2.98305178461789   11.50537285539458    3.57419222667635
C         2.80848249463118   12.61763268739228    4.39080979830241
H         3.08884799831513   12.53327991142263    5.42779626316937
C         0.84716829141238    6.75806265031590    8.17491343417788
C         1.59146111933187   10.05436979239968    5.69191971620766
H         1.11092754304397   10.97465448595078    5.42492837444691
C         1.21201872970800    9.14617544561681    6.61887499126767
H         0.35736078970051    9.16742425726440    7.26634632814363
C         8.93582567185605    8.00680261777980   -1.81078992199003
H         8.84763707443170    7.99253687254674   -2.88757181475789
C        -1.22751992555890    6.58059690909800    9.98362611022488
H        -2.03474131671722    6.50910766802354   10.68916213195813
C        10.13949194341770    9.72292681821542    3.43137544468635
C         8.43035795645363    5.50055546792152    4.34005902461008
C        12.04077597757634    4.54979930158362    4.22896585857962
H        12.66167316880572    3.72180621319026    4.54008239774540
C         2.15554016840136    8.07032776024298    6.55008517356979
C        10.27559929653591    8.24955357791001    0.16153660289316
H        11.24015966276660    8.42247465097890    0.61648545379417
C         3.36572346530105    3.60318734114180    6.89092764177069
H         3.44258976092245    2.53927813267970    6.99745714907922
C        10.50497723096164    9.88491302849974    4.76515174012183
H        10.31482605523851    9.08281914397195    5.46438515034498
C        12.61249539478496    5.65604552687099    3.61976538673118
H        13.67930898264251    5.69684584308887    3.45486283612888
C         1.96510032509487    6.86526461048793    7.21540557554950
C        10.39801370548803   10.76615416484371    2.54877284024844
H        10.12639250481546   10.66139426957896    1.50721782838059
C        11.80404193832241    6.70684113932979    3.23186121732574
H        12.24500658964459    7.57834360914413    2.76928441988984
C         2.44307443436677    4.43519930636376    7.42344274496420
H         1.62305222184809    4.19368163631582    8.07041029841388
C         7.93509673142541    7.82278969849522    0.36074316950793
H         7.05864263048770    7.66226995296786    0.97164685980423
C        -1.30695865988573    5.86237781112971    8.79620105279927
C         2.30646421256414   13.79989192840146    3.87253438575165
C        -0.25562911089071    5.96470653916506    7.89463140265083
H        -0.28203857353058    5.43995888785725    6.95158605735162
C         1.99109979408876   13.84458708974804    2.51562191785457
H         1.60156895316357   14.76316125127930    2.11145855898465
C        10.67982903572939    4.50798760894253    4.45062175673947
H        10.25446378704632    3.64965143577454    4.94757132550003
C        -2.49482261394399    4.97692993123280    8.44784222130224
C         1.84278312114605   12.79550722763193    0.18956019907285
C        10.16700250802024    8.22926370637741   -1.21682964338714
H        11.04265113989671    8.38774146573297   -1.83021137398515
C         2.16571551230444   12.75533184643521    1.67575668974841
C         4.27452703052959    4.42169755426062    6.14348711732024
C        -0.14005993079344    7.39198329500101   10.28562463784377
C        11.10656160546144   11.04993162712302    5.20374589585320
H        11.38331210818301   11.15749098016442    6.24288470506564
C         3.51595916543935   10.24341044543001    4.12483279684660
C         7.81998539610929    7.80089236938375   -1.01762947213544
H         6.85713320987104    7.62326030142984   -1.47512624212230
C         5.93147341008313    1.90674454649288    6.94894185475422
H         5.78327219670301    2.50624221958514    7.83428096187369
C         5.46717315042638    3.95019362140965    5.60893406593137
C         0.89564818859398    7.47095649464819    9.36402702189324
H         1.76322354929023    8.08407264505760    9.55570661095896
C         2.66609566233804   11.58121637487071    2.22743884587866
H         2.81215445354787   10.70205824509503    1.61832172157380
C        11.35644003780505   12.07879793711601    4.31087376517207
H        11.82786785764466   12.98990233844306    4.65020513947947
C        11.00059711342867   11.93407871044585    2.98079232516289
H        11.19390784528483   12.73312630913528    2.27907990853295
C         0.05949195349486    9.68603792454506   11.22263056997385
H         0.94205120576112    9.89053278639290   10.62299668832789
H         0.11846661695640   10.28293947863675   12.13046202685790
H        -0.81638090987444   10.00162975660627   10.65898660097684
C         2.08625057624152   15.04194371879781    4.72388213046193
C         6.03224009492118    1.78308930936267    4.55109945503117
H         5.93010718242341    2.29023498779162    3.60584407963946
C        -3.15066051571908    5.50854994060209    7.16574745879426
H        -3.49086356517164    6.53148315333046    7.31422407414798
H        -4.00879825448497    4.89445426329880    6.90036810349472
H        -2.45442778204718    5.49992052687098    6.33184041431044
C        -3.55818518653990    4.94355237396173    9.54902099633038
H        -3.14826360559473    4.55546757414441   10.47876025710487
H        -4.37350823779224    4.29037654269527    9.24403276985624
H        -3.97204929117147    5.93368068300143    9.72572974665053
C        -0.04546713700019    8.19529913717035   11.57470966258037
C         6.26133361896117    0.55957913355467    7.05052527134845
C        -1.99826590992044    3.54169804043545    8.22203665804791
H        -1.29242250032316    3.49025208526420    7.39770291816594
H        -2.83620259511117    2.88673421728705    7.99227229934493
H        -1.50569379541369    3.16895311761827    9.11815870228431
C        -1.26032101755403    8.00593337581112   12.48725726605535
H        -2.17455763435236    8.33345799878795   11.99742795962140
H        -1.13155447439816    8.60244716819726   13.38834991835296
H        -1.36752330853363    6.96602453332701   12.78733335439406
C         6.37126763288080    0.44239016365180    4.61926799056274
C         6.47508677525534   -0.14827813501888    5.87773964395835
H         6.73601498120610   -1.19121850646827    5.93306783108685
C         1.20502406191426    7.75390320162412   12.34791825284752
H         1.14763136732933    6.69250333436520   12.58084676672889
H         1.28435546791827    8.30824401701995   13.28087479932729
H         2.10931361123032    7.92701051297005   11.77149660881864
C         6.64342578143876   -0.40037441427224    3.38185471084095
C         3.12360314625817   12.49694479302626   -0.60275162295494
H         2.92044082049425   12.53006530802555   -1.67117699572902
H         3.51921987137774   11.51420104803424   -0.36179604844547
H         3.88793499106133   13.23723452729293   -0.37419748484205
C         2.93164601415148   16.19354222864776    4.16229392693039
H         2.80481585972748   17.08463957499430    4.77364144658952
H         2.64452083198702   16.43791914024543    3.14332330576699
H         3.98494173668421   15.92058535409663    4.16383281997867
C         1.30598718560057   14.15479350429169   -0.26700440225251
H         0.38049372293864   14.40377145885410    0.24742594452990
H         1.09658152253864   14.12093368260668   -1.33440738080952
H         2.03558233754825   14.94289922624252   -0.09441833038464
C         6.47755478496967    0.39191765126592    2.08224768232026
H         6.68317193193765   -0.25742140673357    1.23342013887882
H         7.17200479553228    1.22795230684612    2.04056351786724
H         5.46197591543359    0.76712965072303    1.97977438091660
C         2.48267013051515   14.83049171689770    6.18764642378815
H         3.53832680732103   14.58456991345314    6.27568672661067
H         1.89325835885538   14.03823510432315    6.64354348902193
H         2.30335033941742   15.74642668191690    6.74741557971580
C         0.59846449261965   15.41877566936572    4.68260656367410
H         0.41592522321949   16.29415594447227    5.30248865885718
H        -0.00769247393915   14.59724809804101    5.05914782130686
H         0.27324252482153   15.64557465672202    3.67106388750088
C         6.71672164586307   -1.56252267827221    8.37745575610440
H         7.68050007255871   -1.72705374190292    7.90082737302506
H         5.95208996053453   -2.12178650792622    7.84283201899325
H         6.77344139516247   -1.95690037265252    9.39017233157704
C         5.66364670435198   -1.58155669093068    3.34935604945512
H         5.82754766968715   -2.17970359669310    2.45536846267163
H         4.63819504766123   -1.21790279810151    3.33815861129781
H         5.78723956433547   -2.22609064178337    4.21524562342879
C         0.77868032964390   11.73347034189022   -0.11987837163575
H        -0.12389715037636   11.92695540539963    0.45636398407520
H         1.13134043523866   10.73585415109733    0.12578335304857
H         0.52418410576631   11.75426850751998   -1.17760557437518
C         7.47869115177506    0.64635187348124    9.21821631096621
H         7.58136140899718    0.20526358828373   10.20756805447231
H         7.25716451214862    1.70316135349461    9.33788987309699
H         8.43056042233947    0.55451330475495    8.69890727628746
C         6.37379236377207   -0.07127704733375    8.43058423327405
C         8.08651574896482   -0.92110200056947    3.44173453305988
H         8.24999620342205   -1.54051884306723    4.31939322498280
H         8.78505108680526   -0.08744146733499    3.47706895138943
H         8.30692576707126   -1.51746856379526    2.55880964216949
C         5.03071164139566    0.08343515554646    9.15830809676892
H         4.23754548286942   -0.39801470458074    8.58933058871816
H         4.76911804302581    1.12954716337477    9.29146397480515
H         5.08050177808795   -0.38160384161090   10.14073599771563

