139
CSD_code = BEDLIG | q = 0 | S = 0 | Stoichiometry = C48H78FeN8O4 | MND = 6
Fe       -0.91498469223538   -0.00084806563545    6.79879791920562
O        -1.70759171361566    1.14818680264827    5.28972838244349
C         0.34352278865916    2.39578733063095    5.23174696934028
H         0.71994606069053    3.23647669451383    4.66286626693097
O        -1.56343376164384    2.84320873718462    3.84809571595286
C        -1.14920728445510    2.11198570487674    4.72721866320850
C         0.18753633567094    2.54091624583835    8.75766420853337
C         0.59456941017657    3.85528514866991    8.50145343894086
H         0.78875908603424    4.61188328874689    9.22865917812363
C         0.69176203330032    3.98403263200125    7.13354124777330
C         2.12266261426026   -0.64036798309993    5.32731827776254
C         2.73064274144308   -0.08552167273288    4.19885832538194
H         3.53152926945818   -0.51094172340827    3.63327500675858
C         2.09793902247997    1.11850418650785    3.94568307173318
N         0.01946551575205    1.90129018573558    7.60156018115174
C         0.09079761183382    1.93203410939691   10.13115573942050
N         0.36182714536878    2.76696637399027    6.62399721900313
C        -1.23457571450184    1.19927394582629   10.31760125744395
H        -1.22707017489456    0.65337086051394   11.25835241009822
H        -1.36463557992624    0.50003800980817    9.50162641659316
H        -2.07005775677849    1.89541715779783   10.32370533468069
C         0.21209387517607    3.01176651809594   11.21303543725408
H         1.19246725716247    3.48134604584726   11.19389482018900
H         0.07906145964439    2.55414720059116   12.19087616294314
H        -0.55089585475239    3.77755283911729   11.09002680311291
C         1.25221704453532    0.94126951056959   10.28088587620868
H         2.20338981485853    1.43332654790140   10.08770747877001
H         1.12833485591148    0.12616793939938    9.57677327629213
H         1.27017839722246    0.53402507368138   11.28911518054163
N         1.15788988682682    0.17686012898750    5.74527083948979
C         2.53157996014736   -1.91273209822382    6.01872934154461
N         1.18430573054525    1.25862240163052    4.94070084242555
C         1.38264590022728   -2.92260795425092    5.99525373365120
H         1.62860454855421   -3.78348012384001    6.61274142297339
H         1.18631860963746   -3.26485883889896    4.98094156978167
H         0.48701792998002   -2.45256581235621    6.38476619995788
C         2.89448476233190   -1.57262256919370    7.46778411395162
H         3.23938919749156   -2.46282360497449    7.98823760982658
H         2.01976013925626   -1.18614232231431    7.97761021670792
H         3.68287465059952   -0.82299313690864    7.49860035010578
C         3.75159621346634   -2.53313236400831    5.32908794620545
H         4.03376017137151   -3.44454411976806    5.85136216172478
H         4.60057812991174   -1.85361046520738    5.35100917534260
H         3.53100057603930   -2.79086380029816    4.29530617245380
C         1.06843196123706    5.22856423023933    6.37095699645592
C         1.23565706976327    6.39316292085812    7.35994088308934
H         1.50187869582831    7.29426839374678    6.81209907663700
H         2.02516950942673    6.18958174254461    8.07861469552322
H         0.30978447753595    6.58192365323850    7.89662459285138
C        -0.04792207532670    5.64207319083224    5.39762496694849
H         0.23557899555788    6.56269324051347    4.89152388167609
H        -0.96002521767108    5.83199483434399    5.95968627859429
H        -0.28638034173154    4.90219131217311    4.64146822598037
C         2.42426650357161    5.03856972375813    5.67267980893694
H         2.62193336122209    5.87603376860006    5.00664072829267
H         2.47651592841277    4.11875892985579    5.10042295110077
H         3.21601337761379    5.00093126388672    6.41885077714807
C         2.38752160777956    1.95078330870590    2.71393515402397
C         3.83128341031704    2.46966348945416    2.81222247416649
H         4.53319283112371    1.64499956118103    2.90114254214240
H         3.95690252546913    3.11515924059133    3.67883922815040
H         4.08120226193094    3.04053883831479    1.92112142643314
C         1.45236297509279    3.12913717203553    2.42135282548144
H         0.40456974794318    2.85522016887213    2.51515182852404
H         1.61598431198855    3.44927982289348    1.39376576761967
H         1.66414024406128    3.99088551003863    3.04880703386296
C         2.27950871268231    0.99825796782874    1.50812608617463
H         2.95023973839959    0.15040884715238    1.60196009518630
H         2.53225597399449    1.53015095335117    0.59384134347262
H         1.26266971497212    0.62485523636248    1.42005364866591
O        -0.12397111777411   -1.14752253923433    8.31048093895868
C        -0.68231979017610   -2.11182674400860    8.87228549859190
C        -2.17498343995957   -2.39580941120054    8.36756781501630
H        -2.55153098564459   -3.23647105905510    8.93645326348660
N        -2.19365293930090   -2.76700937735079    6.97532693396868
C        -2.52365441814826   -3.98405863840061    6.46582849494860
C        -2.42636884392302   -3.85544014018786    5.09791140332895
C        -2.01944300897671   -2.54112293532013    4.84156397908099
N        -1.85225426375612   -1.90124323072651    5.99758108387811
N        -2.98817013263057   -0.17633791585053    7.85435217586315
C        -3.95332333652643    0.64077348972199    8.27190842910425
C        -4.56160722368930    0.08597364411003    9.40022873854933
H        -5.36264370475336    0.51140589566078    9.96562016515220
C        -3.92913581556389   -1.11814264386675    9.65344191443097
N        -3.01543056866304   -1.25840072425749    8.65852461208510
C        -4.21904538948115   -1.95040126763392   10.88514567638467
C        -5.66289206500176   -2.46908514461342   10.78697848991062
H        -6.36465675736789   -1.64430570448570   10.69798961532069
H        -5.78853395995975   -3.11456286627977    9.92036225635593
H        -5.91299276545669   -3.03993665550644   11.67805822592497
C        -3.28415732003553   -3.12889023833159   11.17796021225188
H        -2.23631157742882   -2.85516832593182   11.08418060278437
H        -3.44790556296304   -3.44899644969617   12.20556691669274
H        -3.49605858462951   -3.99057251638402   10.55045295393476
C        -4.11096821408798   -0.99815795157842   12.09115546486412
H        -4.78159404436724   -0.15025456908887   11.99723839598974
H        -4.36373136247318   -1.52992211411572   13.00553642805250
H        -3.09412267167433   -0.62479067063002   12.17910482920093
C        -4.36246499010025    1.91296282373280    7.58029370393465
C        -3.21327146444193    2.92252999667665    7.60381779570914
H        -3.45936129542463    3.78334674508468    6.98633949686889
H        -3.01708668191413    3.26488553415759    8.61813617135558
H        -2.31752084765669    2.45254647661521    7.21429562006683
C        -4.72535625072931    1.57276823074221    6.13124471936130
H        -5.07013242176976    2.46297423992150    5.61072188148801
H        -3.85070648520058    1.18607589263277    5.62144142037273
H        -5.51389298185717    0.82329555295522    6.10048548072991
C        -5.58259168188974    2.53331124916479    8.26991387077857
H        -5.86469094468557    3.44471243686794    7.74762176287452
H        -6.43168716562574    1.85392330889650    8.24809723824491
H        -5.36200929933559    2.79117628068810    9.30366214502578
C        -1.92179654601033   -1.93258480427787    3.46797052039252
C        -0.59638638678904   -1.19981454392978    3.28161969515467
H        -0.60367462328547   -0.65388261989812    2.34087123766013
H        -0.46650870629238   -0.50062440784469    4.09758883714350
H         0.23914438161853   -1.89589430760897    3.27574172034881
C        -2.04286107976507   -3.01242107897908    2.38618002238093
H        -3.02326604094370   -3.48195118727023    2.40512872235182
H        -1.90954737775580   -2.55495205996430    1.40830458034028
H        -1.27993798440429   -3.77821459490111    2.50955686288635
C        -3.08334556396212   -0.94204268109774    3.31799879509236
H        -4.03463012022719   -1.43400811126816    3.51096022764402
H        -2.95962039578947   -0.12685520983098    4.02201127745151
H        -3.10089024257276   -0.53490023670716    2.30973750186524
H        -2.62015290875535   -4.61216580547598    4.37079302932558
C        -2.90037699744303   -5.22851574133217    7.22846717093877
C        -3.06816503397617   -6.39314114078961    6.23957407118372
H        -3.33472681770849   -7.29416502988482    6.78739885514338
H        -3.85746539890233   -6.18939879985960    5.52069495399895
H        -2.14225837807172   -6.58217695246006    5.70311787892064
C        -1.78439666539914   -5.64237518509089    8.20212164935288
H        -2.06819355484153   -6.56281239617587    8.70843921467137
H        -0.87236565609169   -5.83267950297177    7.64012453362473
H        -1.54563302245127   -4.90242828283819    8.95809905885068
C        -4.25636982127310   -5.03808844212596    7.92637364313315
H        -4.45486269462481   -5.87579097163948    8.59170310506006
H        -4.30846209527536   -4.11890836324648    8.49939719526225
H        -5.04809841710387   -4.99935050709764    7.18028176701686
O        -0.26831199131480   -2.84326128605384    9.75129177285167

