69
CSD_code = BEDLUT | q = 0 | S = 0 | Stoichiometry = C38H27ClP2Pt | MND = 4
Pt        2.24561092347565    6.65071680941528    5.76788507365973
Cl        1.16789317563569    4.98906056327371    4.52896000104222
P         3.13275948746566    5.25076515358975    7.30690458332340
P         1.56828929606671    8.38812381004970    4.48484040046635
C         3.17180856460853    8.08289927054452    6.84424944994284
C         3.08290457085143    9.43481363021164    6.47493296421072
C         2.32107310981854    9.81111951165967    5.33304280595878
C         2.22776267169476   11.11776055193580    4.94122843079309
H         1.65260297032194   11.39266072522219    4.06821329578494
C         2.88386478541521   12.11686374675339    5.68666577236795
H         2.79868262645159   13.14635443386211    5.36983159258653
C         3.61590735396373   11.79620782908911    6.79178487523533
H         4.11560329395566   12.56876285082819    7.35921423282063
C         3.74702276038017   10.45259942173094    7.22727157440938
C         4.49523929420648   10.09301302274181    8.34650341074897
H         5.00232367995637   10.85874152678894    8.91666874769393
C         4.60278422217967    8.76021251864306    8.73857578516715
C         5.36256691649900    8.35001629669958    9.86410087863490
H         5.87158562902937    9.10908536128642   10.44139727297754
C         5.46099257361344    7.03567724557098   10.21496996763972
H         6.05002476085055    6.74364683893809   11.07244978506351
C         4.79873986989626    6.03926820438288    9.47127308078353
H         4.89004327196965    5.00201871450384    9.76266901685246
C         4.04295644607095    6.39503568026051    8.38864881917653
C         3.92980369776182    7.75338935323565    7.97958368025064
C         2.09051339942564    4.22287956855213    8.36947060449715
C         1.76972805597463    4.57609444749782    9.67535360653518
H         2.18670296800593    5.47476396847407   10.10849682624844
C         0.91662326656623    3.77342990344171   10.41233258557704
H         0.67183005874530    4.04301814824848   11.42954255589720
C         0.37245286640165    2.63144703909338    9.84793808247790
H        -0.29346940713292    2.00919387464167   10.42769636506785
C         0.67042072498152    2.29236918855229    8.53661430688627
H         0.23167339980413    1.41111663097857    8.09242911852023
C         1.52254663696154    3.08682842199908    7.79456003312804
H         1.74682251528310    2.84770202899468    6.76353896335429
C         4.42662113360637    4.12728725510839    6.71516900104969
C         4.81598173129729    2.97160708810700    7.38098400281587
H         4.31118797988402    2.67260857619500    8.28936404880315
C         5.84163625408595    2.19946678875901    6.86472313369692
H         6.14390840771061    1.29752127952779    7.37693704941658
C         6.47859490327777    2.57590702206348    5.69324498385318
H         7.27501894500249    1.96497256591269    5.29450004377717
C         6.09206607858860    3.72921904576321    5.02811426812501
H         6.58589369358116    4.01677984630733    4.11167319886482
C         5.06834682707761    4.50271587839800    5.53936520654733
H         4.73472169230033    5.40601164766065    5.03429307983990
C        -0.16922332868163    8.80333920216504    4.20131653067166
C        -0.84381202594668    9.73126985714570    4.98771662787169
H        -0.31163306931260   10.26891241483724    5.76053959425026
C        -2.19165439065938    9.96001378129377    4.77509317107851
H        -2.71503364047490   10.68566341391909    5.38080924959266
C        -2.87131406832748    9.25696930586398    3.79370182591771
H        -3.92381641126161    9.43840701711881    3.63240415802414
C        -2.20631831013160    8.31222894666939    3.02685030147724
H        -2.74124274229116    7.75325441211440    2.27325602893312
C        -0.86012254139454    8.07912935824532    3.23149497199427
H        -0.33405359866294    7.33075476429579    2.65410222657509
C         2.31943000643736    8.43987726147656    2.83554889543377
C         1.88746455038015    9.28164567730253    1.81723191224506
H         1.02908579150058    9.92129694183151    1.97025790021409
C         2.55114449644570    9.28089260066811    0.60364443103429
H         2.21612885030080    9.93060508883231   -0.19187656789440
C         3.64034363167121    8.44745439523657    0.40319728234500
H         4.15025489487991    8.45013974343418   -0.54892085417101
C         4.07077908557088    7.60532726025946    1.41628239351147
H         4.91343703312692    6.94959764766182    1.25418810762813
C         3.41111942569644    7.60316084963125    2.63030082212763
H         3.71276827756826    6.93930677449706    3.43815442857479

