65
CSD_code = BEDMIH | q = 0 | S = 0 | Stoichiometry = C20H36N8Zr | MND = 8
Zr        1.51872113822427    7.41920267757149    3.53640935022360
N         0.56220027074565    9.29923047569125    4.61796133399389
H         1.12275561687965   10.15523172072615    4.64800923579523
N        -0.22759927874312    6.68974678947315    4.77701555091279
H        -0.27345698564844    5.66997932799177    4.83711860623680
N         2.34268740191963    5.56519949446076    4.77054119399037
H         1.78285381290964    4.70833645864564    4.75478550523116
N         3.11283206319666    8.18223441001110    4.94802900981695
H         3.15671039169917    9.20340543591204    4.97683388288754
N        -0.13090769148075    8.01674985903682    2.10178988828807
H        -0.25130314326955    9.03020218112411    2.03723201150490
N         0.84533822027348    5.48187245200748    2.36643075401911
H         1.46532386664733    4.66836718162441    2.41552111894350
N         3.32297962122063    6.78794293988590    2.31984493610791
H         3.44882645309495    5.77334963586094    2.29571874418140
N         2.32579256161918    9.32890281939190    2.39923283509447
H         1.70398339259015   10.14065930459768    2.34470471137841
C        -0.69560050701691    9.56247169703849    4.87000795090780
C        -1.67709143291951    8.57371580474746    4.97716290391217
H        -2.69185048843677    8.89817567622344    5.15699329920082
C        -1.42413276304547    7.20152526646998    4.94176289394098
C        -1.15553493514845   10.99221589725997    5.09435796672070
H        -1.39849997856067   11.14160477080169    6.14569713484802
H        -2.05055802248807   11.20558252288250    4.51315517052532
H        -0.38013252705671   11.70617378350366    4.81706230048403
C        -2.59770713435037    6.26446631903996    5.14596409743270
H        -2.72772114073564    5.65778084770290    4.24974782374821
H        -3.52099382904751    6.80329295101268    5.33910617178231
H        -2.40301595544608    5.59627290612317    5.98510991647317
C         3.56002162498256    5.31270927490273    5.18154845040442
C         4.52290868138729    6.30632269678864    5.37674203522558
H         5.50789501549953    5.98829147588943    5.68675142725335
C         4.28066454729697    7.67625501055648    5.26621208796596
C         3.99294848002113    3.89129409662341    5.49568755814339
H         3.21751035161670    3.17255531982114    5.23184430348421
H         4.20642307911943    3.79229383907000    6.55894575342215
H         4.90094137168884    3.63953116447266    4.95029081963407
C         5.42631911967279    8.62002869146633    5.57209975784842
H         5.64528467384452    9.21231570222766    4.68364602904863
H         6.32594735128211    8.08706300682290    5.86647995228820
H         5.14695105691461    9.30117417689928    6.37606250303635
C        -1.25204476571342    7.41130257663168    1.79538517652792
C        -1.38610276933315    6.02171379629701    1.73171916228825
H        -2.34478093469025    5.62229032858639    1.43504828233041
C        -0.34951191002327    5.11762908912353    1.96461464544556
C        -2.46726272938773    8.24938833417022    1.45297868519207
H        -2.78154445018875    8.79447706661179    2.34321063077530
H        -3.29803987997072    7.64130331897376    1.10625492998584
H        -2.21921522015806    8.97522176483094    0.67847093220083
C        -0.63111937337003    3.64444828122564    1.72897297074718
H         0.09726682132245    3.23331901963148    1.02956996011794
H        -1.62641753101425    3.48132182923677    1.32550521834464
H        -0.54390647862425    3.09296214950935    2.66668722703198
C         4.47264019050795    7.38757141060345    2.12933327743079
C         4.61499395493709    8.77515811956032    2.04452555671968
H         5.60200455219528    9.16791389851035    1.84913403667808
C         3.55919616083434    9.68355923405236    2.12686547460654
C         5.71949906463408    6.54414578783875    1.95395272594048
H         6.58024361515184    7.14279620213366    1.66976211434270
H         5.55677291253037    5.78260169155485    1.19133349226309
H         5.93973680046152    6.04194249656881    2.89608905060236
C         3.86599428348620   11.14575693131894    1.85671709770044
H         3.40740876186407   11.44604436002358    0.91409734323237
H         4.93467927204684   11.32939884219333    1.78951881250873
H         3.45269530181021   11.77480740857582    2.64633622064667

