75
CSD_code = BEDMAZ | q = 0 | S = 0 | Stoichiometry = C22H46N6Zr | MND = 6
Zr        3.78739148728902   10.88879848161889    3.12055356667903
N         5.57451257997289   11.16482765413230    4.45830168235004
N         3.79992146323138    8.95536156483470    4.22440385794376
N         3.89359770971331   13.11104625484744    3.03007606724094
N         2.33638973993334   11.45714986506693    4.74233112393710
N         2.15302536705380   10.78354598398331    1.84208690774204
N         5.10905525456858   10.21493432938743    1.66607385114430
C         5.47427570400741   10.92031719487957    5.74224580622211
C         4.66252835605513    9.89422308099681    6.25265236311628
H         4.67293991590194    9.77584182144009    7.32764531501968
C         3.97507278229415    8.91249045076299    5.53175755562984
C         6.31887207986653   11.67131084663138    6.75080397928807
H         7.37570128316054   11.45015534368951    6.59937205194027
H         6.05209744944787   11.39730290899885    7.76725195138606
H         6.17897468334604   12.74480358774056    6.63049515890352
C         3.48181134593307    7.72459401023730    6.33797324266667
H         2.42912954850918    7.52198585828041    6.14153801201461
H         3.61000194142850    7.89632808633367    7.40304478824182
H         4.04659939027594    6.83203814249911    6.06754804347320
C         6.63068973344089   12.04969334812851    4.00828450409609
H         6.55075387928137   13.05985718677026    4.43325578329430
H         6.57500100703563   12.10927102302435    2.91811207608599
H         7.61868867783453   11.65469043411515    4.28441035046992
C         3.23829008462778    7.77954036430085    3.58692043180646
H         3.85190799336621    6.88759553073524    3.77854859279991
H         3.20896609539628    7.95686475830653    2.51186775049625
H         2.21855113751875    7.55613654463991    3.93623928918292
C         3.98782702083634   13.84042894415133    4.12589310548871
C         3.52037298521281   13.42256637289603    5.37606684841129
H         3.72324117997655   14.08569232799134    6.20602985809111
C         2.68273668733447   12.33070874887852    5.65622362622738
C         4.56662042463632   15.24275800733734    4.07211833933877
H         5.54479595355101   15.24947858966852    3.59157601678603
H         4.66643833232048   15.66159277832530    5.06956851187092
H         3.90985538464057   15.89379793423143    3.49457192915869
C         2.10830933929777   12.26852453972119    7.05647606807610
H         1.03179430066533   12.43954277197630    7.03208423427113
H         2.56119547057596   13.01712875016302    7.69982812981826
H         2.28305419856835   11.28435579493343    7.48928311120501
C         4.24636118938182   13.74476012956492    1.77371100675933
H         3.63502545949118   14.64000116264773    1.59028875001722
H         4.06660027148247   13.03047453836370    0.97031043830372
H         5.30150366501456   14.05677971811964    1.73981831378273
C         1.26468593554879   10.53073597638573    5.04929415730346
H         1.49045036808179    9.88805549182483    5.91152189023522
H         1.09826850552246    9.90805015421371    4.16630107775608
H         0.33299939851584   11.06843562799637    5.27564440362804
C         1.12467804851073   11.80907693555967    1.85922328440626
H         1.39375348966580   12.53139925932788    2.64157809022246
H         0.13044907963417   11.39151403682505    2.12121819248832
C         0.94493762814767   12.58692499492301    0.53435433011961
H         1.91202039121354   12.90029610745685    0.14787791540905
H         0.33266712589636   13.46962716159211    0.70660369617039
H         0.45069309970737   11.97714577597811   -0.21858984746620
C         1.87945963075446    9.74157132988499    0.87360984491662
H         2.77020419946410    9.10242620506544    0.80792072846229
H         1.70740209148656   10.15475702576100   -0.13948857935819
C         0.65837010745106    8.84963909289347    1.20346519821810
H         0.72285767650598    8.48287752946045    2.22616342906420
H         0.62198848058591    7.99908740708991    0.52574390481905
H        -0.26777571506754    9.40898508988160    1.09528400318894
C         6.18345992253131    9.29645605249016    2.00037482392958
H         6.12821331291760    9.10539892208450    3.08050167647136
H         7.18098762036096    9.73585114516508    1.79188900798933
C         6.13811024070537    7.93243850806020    1.27245784598074
H         5.13501958987208    7.51465371152297    1.31787745909321
H         6.82906723991349    7.23935482128306    1.74778346485350
H         6.42664281325256    8.03121894144153    0.22840886642129
C         5.10511607875552   10.57511604259916    0.26290541449947
H         4.18291059203939   11.13742083940576    0.06386695288810
H         5.08251933893165    9.68235185113464   -0.39229410210475
C         6.31095094508267   11.43146146856535   -0.19326075272905
H         6.44670420692032   12.27995687861033    0.47476082186203
H         6.14699155719303   11.80096930279881   -1.20353203418691
H         7.22461844640655   10.84195054719644   -0.19220755528931

