59
CSD_code = BEDNII | q = 0 | S = 0 | Stoichiometry = C27H27Cl2OPRu | MND = 9
C         0.71038129000300   -0.73514078970665    1.69577246781243
C         0.39577322132837   -1.24094186590731    2.99048387618225
H        -0.63626750031533   -1.47877323844890    3.22772082574240
C         1.39912630902089   -1.51468142347303    3.92461338782872
H         1.15242073036035   -1.98142360169709    4.87156185186785
C         2.74993917459196   -1.21333083454643    3.61363485973317
H         3.53290167458611   -1.45281240480608    4.32572076252811
C         3.07411388976475   -0.71759704493508    2.34125538202289
H         4.11037444875465   -0.56497132382844    2.06097115960354
C         2.05374637243821   -0.50046928509205    1.38232799695987
H         2.32419374538072   -0.17768521683001    0.38526932667338
C        -0.38694801109997   -0.51409811904464    0.68412700421023
H        -1.34524696803933   -0.50136444136227    1.21537465329413
C        -0.22660355537909    0.81562129365965   -0.05467437552348
H        -0.05177603599499    1.61876316261259    0.66049835014051
H        -1.13328999392641    1.04234993029523   -0.61004210547455
H         0.60528863967513    0.77426600796850   -0.75195198232168
C        -0.42409220643275   -1.69511751435336   -0.30048548761465
H        -0.66100924396138   -2.62192761919871    0.24576474955254
H        -1.22013611454545   -1.51330515923922   -1.03475785530833
C         1.17792299944702    3.18337089398450    5.85494018662151
C         1.21400382787944    4.25723271075213    4.96939637189625
H         1.64879398345270    4.12039607690742    3.98816269281452
C         0.67381636689965    5.47391787859147    5.34075196517680
H         0.69330807342693    6.30211039560164    4.64833920452810
C         0.10317656015276    5.62844170682923    6.59398689655714
H        -0.32320645830719    6.57843551472847    6.88157032498282
C         0.07381531256174    4.56310267533359    7.47784416483187
H        -0.37279424144038    4.68153009933169    8.45468594705151
C         0.61031304891521    3.34018456937711    7.11500175617989
H         0.57475811159441    2.50975218459682    7.80679580033400
C         1.41550685321593    0.41884587033236    6.55559040176516
C         2.28556638518628   -0.34454131807404    7.32412154372028
H         3.35138753323584   -0.17302313799009    7.26416457834703
C         1.78211733398920   -1.32091048007342    8.16792510828277
H         2.45924601248787   -1.91155855514745    8.76794043441159
C         0.41726660788759   -1.54338282308702    8.24227369522682
H         0.03081351038728   -2.30606509057928    8.90238198782841
C        -0.45291932505910   -0.79221065375001    7.46514730036629
H        -1.51683848693277   -0.97077195804149    7.51855292754725
C         0.04198464235421    0.18101731452416    6.61880330676168
H        -0.61869596359665    0.76630347260755    5.99060453470509
C         3.70105313111513    1.96952783719469    5.74736598583147
C         4.03428495041214    2.42291148339582    7.02127161769203
H         3.25519979487272    2.57695760331013    7.75525205485793
C         5.35553759351811    2.67552055955786    7.33724571281611
H         5.61489288538927    3.02487983073033    8.32600009202112
C         6.34702708067021    2.48689148408655    6.38604110981516
H         7.37806036239252    2.68866817146642    6.63684200254010
C         6.01571631944746    2.05113246199824    5.11428656850901
H         6.78690478997734    1.91890354045505    4.36989605576138
C         4.69440841108059    1.79208684672275    4.79357589162590
H         4.41629769533565    1.47779043704927    3.79587050865327
Cl        2.47401254417776    2.58881325896372    2.23501689349597
Cl       -0.49248063382116    1.84780037008637    3.48873274160298
O         0.82744380586043   -1.81665368324024   -0.94003566322606
P         1.96526118628328    1.63208234304575    5.32240621765836
Ru        1.55391330451167    0.69361292049977    3.28653977705560
H         0.76153422483131   -2.47756332414330   -1.63567354455789

