73
CSD_code = BEDSUY | q = -1 | S = 0 | Stoichiometry = C36H30Cl4P2Rh(1-) | MND = 6
Rh        0.01098377709967   17.96135614359794    4.21188675023285
P         1.00751728380085   19.93718284804460    3.60475720151025
P        -0.92729821519156   15.93988098121925    4.72252373540883
Cl       -1.64075493057047   18.08287347199980    2.52857547444950
Cl        1.44641620038818   17.79192855192262    6.05752492245774
Cl        1.59618697297110   16.91287189117815    2.80934344509870
Cl       -1.52019881011524   19.08485008936253    5.58456750060718
C        -0.20902147268454   21.79577160594263    5.25143744633907
H         0.24248258156752   21.21857848343869    6.04667850812700
C        -1.01965110933770   22.87633759741975    5.54088465884215
H        -1.19356116947215   23.15784160511533    6.56995938806493
C        -1.62399217477223   23.58610936389995    4.51517522966321
H        -2.26418170737621   24.42765510255306    4.74338862748447
C        -1.42228503530076   23.20681487519947    3.19922079998929
H        -1.90741763307451   23.74882872834268    2.39875824980885
C        -0.61021476650057   22.12605729501874    2.90210399717805
H        -0.46911317635309   21.81877719193226    1.87517375409725
C         0.01587178357083   21.42647106128945    3.92579184965554
C         2.92031028443892   21.52573382103950    4.99782885090282
H         2.18173784668235   22.31379547330219    5.04780389545884
C         4.17910610462701   21.73624780983495    5.53442436123953
H         4.40753436826914   22.68419524198593    6.00356077820699
C         5.14058180114033   20.74285742156885    5.47309133718998
H         6.12000738632948   20.91075796870556    5.90045196805039
C         4.84284887047103   19.53538229497971    4.86301682401601
H         5.58949427835118   18.75588454761111    4.81125130704774
C         3.58883895248939   19.32018605294038    4.32472350844790
H         3.35438972862847   18.37582171032767    3.85429089929803
C         2.61311893670991   20.31118910393147    4.39627165060660
C         0.92859174468233   19.45998951454290    0.83065883891736
H         0.18679494028035   18.70844997956645    1.05829524998387
C         1.30224652708150   19.69193477557141   -0.48207697786909
H         0.85729260845799   19.10718924551561   -1.27453710264133
C         2.24018721071059   20.66463929577677   -0.78014631537890
H         2.53556791755621   20.84162617154136   -1.80563897408813
C         2.80189717486562   21.41405635825964    0.24132329565213
H         3.53207239432891   22.17944363949402    0.01425249980042
C         2.43375671433734   21.18546801068933    1.55355172116914
H         2.87593220146696   21.77433588932283    2.34559304159361
C         1.49706950272723   20.20110273063256    1.85891085577698
C        -1.82564914097831   13.48054703998709    3.82453295970132
H        -2.06008566912133   13.31668808167667    4.86795444678712
C        -2.09092366662739   12.49341634839069    2.89629233614096
H        -2.53230592189425   11.55865775720405    3.21534080206650
C        -1.79092465341302   12.70007192133424    1.55840241838784
H        -1.99900497518626   11.92540675268000    0.83262110542539
C        -1.22621313633353   13.89744718037224    1.15835457598018
H        -0.98971882001668   14.06349969712047    0.11711554397182
C        -0.96053164461769   14.89159702259071    2.08578526577557
H        -0.52610080757649   15.82561852781561    1.76668135815061
C        -1.26153877200080   14.69054329476467    3.42460927359508
C         1.35492975321027   14.63486311692390    5.50544992861354
H         1.77701574402029   15.15388952276661    4.65584870678537
C         2.13800029527870   13.78475706458007    6.26224026836695
H         3.17605703896279   13.63595622295342    6.00127829877278
C         1.59642389178796   13.13039966682197    7.35653760912400
H         2.20934299549645   12.46907136158593    7.95411175778110
C         0.26676402431656   13.32686300352461    7.68597234514236
H        -0.16201725305351   12.81601024310251    8.53808352429317
C        -0.52216591288328   14.17840187143818    6.93180739266589
H        -1.55892956464439   14.32356214188731    7.20344972125205
C         0.01999564881328   14.84482250203365    5.84017468886531
C        -3.73021186441884   15.87907279656086    4.80542994853943
H        -3.68653843264513   15.58059266712524    3.76718776383081
C        -4.95222862133094   16.08005268388943    5.42320903608309
H        -5.86636755765158   15.92264190414212    4.86705480069319
C        -5.00604254196079   16.49490592876877    6.74283764465556
H        -5.96328762908961   16.65355867990644    7.22108839075997
C        -3.83379129749564   16.73048562821769    7.44403877157340
H        -3.87505240511594   17.08335964908947    8.46502907672299
C        -2.61068263693113   16.53633659055143    6.83203161270894
H        -1.69033142921100   16.75586673338138    7.35664713014902
C        -2.55383093099030   16.08046245219580    5.51604844424219

