97
CSD_code = BEDXOA | q = 0 | S = 0 | Stoichiometry = C32H40F12O12Zr | MND = 8
Zr        3.76419446284877    6.85222697882729   11.45372266733622
O         2.71188117009957    8.73440829130039   10.69352482269152
O         4.76836938776398    7.55212426442456    9.79051036964637
O         4.30218092135688    5.06871413670055   10.30836309744911
O         2.03199375606116    6.28668024663901   10.50747897321413
C         1.53898794430550    8.99883783882554   11.01198824240180
C         0.60124817260381    7.97131169817633   11.34209103372380
H        -0.33334030808459    8.22014850682804   11.81537900975217
C         1.01544294032061    6.67727079743352   11.16875791313196
C         1.09953556531390   10.45331860655052   11.20673509413677
C         0.29631748903359    5.56406235429715   11.92876690901254
F        -1.03884060098019    5.58715907796639   11.86571585389280
F         0.69474335507286    4.35419246534205   11.52751319623522
F         0.61989731727659    5.65560555231650   13.23847116536506
O        -0.29992106306050   10.59622472100813   11.04647685828070
C         1.39517286793492   10.76629455933503   12.68240652420507
H         1.27302811042745   11.83154603795583   12.85920847960632
H         2.41031556487538   10.46416990788222   12.92566532949622
H         0.69985398270418   10.22464567252871   13.31672472507873
C        -0.79316697772843   10.41296788059855    9.73777996801560
H        -0.56445639031254   11.26961708383873    9.09619072728161
H        -1.87369505825305   10.32425620217813    9.83821943459209
H        -0.39504460573959    9.50210306082162    9.27927067927970
C         1.91166555219360   11.37877456731101   10.29640063213104
H         1.82736411572344   11.07838877944746    9.25581375372645
H         2.95804322890407   11.32170798982150   10.57722642831722
H         1.56039706409199   12.40140857876527   10.41092698699152
C         4.35992453663521    7.24638807198451    8.62554010841461
C         3.98085545278136    6.00510592973002    8.18304558856854
H         3.70704515839522    5.82617295010296    7.15720918972213
C         4.03926049476734    4.91747832315364    9.09922106176032
C         4.34829657392070    8.42679960644097    7.64581111527604
F         3.52906578993672    9.39315534096175    8.09226272655897
F         3.93152004479914    8.11689686182438    6.41198282426815
F         5.56058258686019    8.98026473337336    7.51484472401259
C         3.74418247230324    3.51983226682392    8.53555607726403
O         4.23155310069568    3.38890329465837    7.21202895540609
C         4.26994810638904    2.44398033021491    9.48756203768196
H         4.16548169045084    1.46530360117281    9.02542604570625
H         3.68364944458451    2.47732540024216   10.40000640265881
H         5.31224349835497    2.61902382953389    9.74073416708802
C         2.21393737078540    3.42926094919884    8.43124726001810
H         1.93603103551281    2.41687166523036    8.15052010284962
H         1.85877223983523    4.11364660708294    7.66664814576924
H         1.76253719132967    3.68443210858530    9.38493769453641
C         5.63588212984990    3.40759753661380    7.06967504963160
H         6.08261413708836    4.26253685580403    7.58596826827857
H         5.82223815037341    3.49265873015904    6.00047592820778
H         6.09058516806516    2.48288583935211    7.43820900914183
O         4.81645129628233    8.73444139020881   12.21385725419727
O         2.75993680780181    7.55211592524966   13.11692307131869
O         3.22597316865608    5.06865410144888   12.59908963809981
O         5.49638314524647    6.28668327154843   12.40002766422124
C         5.98951815172137    8.99884260955795   11.89601084055163
C         6.92700808802178    7.97130636692578   11.56522522188503
H         7.86157236764601    8.22013480000801   11.09187434688455
C         6.51273808570817    6.67726300023168   11.73847719345157
C         6.42876207623954   10.45327468189783   11.70050742545347
C         7.23180936547748    5.56395042791345   10.97859056348625
F         8.56696996747574    5.58703328571683   11.04131472156098
F         6.83343431515568    4.35411853138289   11.37998955030122
F         6.90794162184322    5.65542455031645    9.66893035190644
O         7.82819556568020   10.59612673540694   11.86088371168760
C         6.13317429616988   10.76641142688076   10.22482529857676
H         6.25539355464695   11.83166035709229   10.04802047962062
H         5.11801317076665   10.46440780468259    9.98149622807295
H         6.82847531986905   10.22475452645055    9.59050843740660
C         8.32138177193918   10.41298668147628   13.16962401070338
H         8.09272446431762   11.26974876202881   13.81107868759632
H         9.40190299508881   10.32416721914588   13.06922836576675
H         7.92318813831446    9.50221529494690   13.62824134544125
C         5.61657575360654   11.37859302873459   12.61089915164530
H         5.70090080906821   11.07819997640311   13.65147761689882
H         4.57019626118947   11.32150814424975   12.33008225423505
H         5.96782060060361   12.40122557611398   12.49637136865413
C         3.16833524952882    7.24633798151618   14.28189655893079
C         3.54725101112029    6.00502378345875   14.72442552040547
H         3.82102915366799    5.82609994892106   15.75027761578195
C         3.48872988159074    4.91738243669795   13.80826760266627
C         3.17998575242571    8.42674912826953   15.26165528597724
F         3.99931505331743    9.39303085122379   14.81518666106181
F         3.59673570431228    8.11684272898870   16.49549484777463
F         1.96774895006547    8.98033416128012   15.39262285814589
C         3.78418234586625    3.51978974613543   14.37184340531388
O         3.29666719670524    3.38872337108558   15.69529498796120
C         3.25856505748970    2.44401555599006   13.41967506683177
H         3.36299102753820    1.46533021590399   13.88178366382769
H         3.84498776886013    2.47740943156939   12.50731345872461
H         2.21629399227865    2.61904348224952   13.16638640976272
C         5.31442677603353    3.42923074010202   14.47630749253301
H         5.59235625373998    2.41683004769913   14.75696603089652
H         5.66947790484447    4.11353493465095   15.24103122151833
H         5.76594888126390    3.68451163006793   13.52270701762690
C         1.89232011584552    3.40751268781518   15.83750345959328
H         1.44566301051253    4.26224353561225   15.32081216655709
H         1.70583288642929    3.49303551364829   16.90664455673291
H         1.43764052949756    2.48265292186798   15.46930795394163

