34
CSD_code = BEDYUF | q = 0 | S = 0 | Stoichiometry = C17H14ClNOs | MND = 9
Os        4.03526828354535   10.90300301917587    3.61329307320433
Cl        3.66276471715284   13.04548743886723    3.06114508403803
N         2.60169952346581   10.30965045925227    2.42004002312916
C         1.31476310383283   10.28761867541117    2.79374447133888
C         0.28985631940999    9.94678205873608    1.94078496396783
C         0.59344639937015    9.61188112681038    0.62320409891356
C         1.91379716676968    9.64405164311103    0.22203814509381
C         2.91260361498707   10.00027025759469    1.12467446628257
C         4.33105235803663   10.09834067325155    0.84483573276013
C         4.93786401621440    9.82066901195269   -0.38166637689803
C         6.30033399828508    9.97553216640964   -0.52036181466483
C         7.06512528932146   10.41188895204128    0.55476477861643
C         6.47030308270632   10.68320404000597    1.77408962758398
C         5.10227216683872   10.52613077083151    1.94775676899643
C         5.18525984131732   11.23088712028376    6.36418054596517
C         3.83539747471075   10.94935157582393    6.67962782347716
C         3.18352004720505    9.91761341419605    6.05160745696586
C         3.80492442452095    9.21213002762492    4.98981272053332
C         5.19520313202130    9.44155714800781    4.71662939738876
C         5.87133637190032   10.44012002050709    5.46859522831768
H         1.10745201475259   10.56693698106792    3.81989616081528
H        -0.72874866518465    9.94954946854336    2.29377053471561
H        -0.18845955786685    9.34281411719297   -0.06910557841944
H         2.18246063812319    9.40460181243737   -0.79384227535305
H         4.34576605183021    9.49197138859684   -1.22280383814565
H         6.77524389066963    9.76623644896163   -1.46750491371798
H         8.13121174041403   10.54337587516523    0.43468445598219
H         7.08435476653168   11.03221933116360    2.59384610493897
H         5.69714751664397   12.01735667791039    6.90051403748068
H         3.34429462063623   11.52124040796356    7.45298154178794
H         2.18204048709937    9.64222636564770    6.35347035822968
H         3.33632580653215    8.29949700216616    4.62743203364546
H         5.77788593991337    8.69228299824705    4.18793498343504
H         6.93893341829353   10.56572152503830    5.34113017959756

