50
CSD_code = BEFCAR | q = 0 | S = 0 | Stoichiometry = C25H21ClHgNP | MND = 2
Hg        2.60693071474990    4.63157412788619   -0.04999388624002
Cl        3.86603717960638    2.81608337000825    0.94346073846080
P         0.74820966981425    2.94687204201198   -3.51539965531569
N         1.15540079154388    3.96301168362368   -2.37358191203905
C         1.32361950077686    6.01002556737389   -1.20370820181773
C         0.79358322014179    5.29309422486114   -2.28712118672516
C        -0.05172207137707    5.95637469674124   -3.17733307265059
H        -0.45903189357120    5.40208594171145   -4.01532209435577
C        -0.36056184793060    7.28705769376274   -2.98773246083997
H        -1.01732100824785    7.78439133300700   -3.68776448933028
C         0.15582820212445    7.99887979474558   -1.91200666444467
C         1.00411784118959    7.34292240745464   -1.02194676403570
H         1.41076931629860    7.89449086692158   -0.18406851908393
C        -0.19294015438126    9.44490063915670   -1.72059043259342
H         0.25599490206870    9.83674174650756   -0.81170584367325
H        -1.27319912223349    9.57099160727279   -1.65670816458080
H         0.16161647779082   10.03652235088650   -2.56430418463999
C         1.22420903915340    3.42759171934488   -5.20839321690013
C         0.31986930163818    3.74209333861680   -6.21349308261559
H        -0.74249015598682    3.63007113024335   -6.04208019794625
C         0.78744563574269    4.19143503101472   -7.43635741966994
H         0.08686723393386    4.43254204884924   -8.22253916323111
C         2.14824336966090    4.33481626107616   -7.65221650201480
H         2.50672488120565    4.68568620392752   -8.60853901194447
C         3.05082625120048    4.03667411251331   -6.64242280970197
H         4.11085488311568    4.15695864838357   -6.81032358839382
C         2.58970848662347    3.58983540706340   -5.41908192495609
H         3.27303574474821    3.35961404647087   -4.61106557859393
C        -1.01166378124192    2.46210872237949   -3.57819268458078
C        -1.48044145161789    1.52511667371601   -4.49313580740962
H        -0.80518353368356    1.09884328622809   -5.22172717542236
C        -2.80975721407619    1.14675935203596   -4.46538979043266
H        -3.17781296945875    0.42208217457661   -5.17709069227191
C        -3.66937084512857    1.69354573665841   -3.52475684359194
H        -4.70717275612072    1.39525756172872   -3.50832561488894
C        -3.19988588148698    2.61603061366725   -2.60401146602671
H        -3.86911830048432    3.03662523985613   -1.86818120095557
C        -1.87012276650854    2.99729105713011   -2.62607512195766
H        -1.48444927667773    3.71199170114361   -1.91163327456725
C         1.64854358381178    1.42494308436411   -3.15172372697542
C         1.95604922720671    0.51558638599058   -4.15772083512805
H         1.68491917648381    0.73036501658571   -5.18311365651859
C         2.63221792396940   -0.64922967134082   -3.84378383802487
H         2.87895198934356   -1.35422656174949   -4.62441849200542
C         2.99935901932212   -0.90828862225531   -2.53241822085096
H         3.53480562944593   -1.81547725275396   -2.29427705631303
C         2.68429935875997   -0.00626457331697   -1.52876120571614
H         2.97557426830010   -0.19985186022141   -0.50785270115586
C         2.00095046712986    1.15551412112783   -1.83640397857524
H         1.74998174331435    1.87083977301083   -1.06276732676091

