46
CSD_code = BEFFEY | q = 0 | S = 0 | Stoichiometry = C14H27AuN2O2 | MND = 2
Au       -0.00365579893427   -5.17971247431221    6.93195176757069
O         2.01109565409739   -5.44992797378626    4.04758667385991
O         0.65327397780349   -1.95790058270750    5.97040694719552
N        -0.30449155684340   -7.43070565625235    8.92680039337133
H        -0.49195078449267   -7.82620885268888    9.84047244067244
N        -0.55946996039380   -5.37115668675911    9.84252815136304
C        -0.31008922000068   -6.11523407074786    8.77006196427314
C        -0.06186112103077   -8.46199646834155    7.91250656531784
C        -1.14261417064984   -8.41458749905327    6.83109944511838
H        -0.99474477282454   -9.22673500049347    6.12584535557159
H        -1.09399802208873   -7.47355196315420    6.28886156062542
H        -2.13115019059699   -8.51130450921339    7.27539197710379
C        -0.13751611482554   -9.80417454251951    8.64656766700532
H         0.02943807411259  -10.61936467439279    7.94895038114759
H        -1.11785674038281   -9.94336202120541    9.09968551370423
H         0.62348793881985   -9.86304497905974    9.42281261239097
C         1.33015733104890   -8.30001431573016    7.29952432178711
H         1.53786589676136   -9.13173322504030    6.63311290005120
H         2.08844840896676   -8.27980525574241    8.07915411633739
H         1.39840437854555   -7.37977483820907    6.72528536576527
C        -0.54477647791035   -3.92026923122879    9.75880635462888
H         0.13486511902580   -3.62075104109180    8.95886054349009
H        -0.16196514695569   -3.52449885094476   10.70245559000332
C        -1.93095823494759   -3.35343596480358    9.47081449418231
H        -1.87635054656765   -2.27084921200596    9.40959225781539
H        -2.64022550206648   -3.62393352121508   10.25024803876865
H        -2.29354561155593   -3.73507826490924    8.51941675096345
C        -0.86967174633406   -5.89677049458747   11.16639056189620
H        -1.52818511628700   -6.76782621041868   11.08031213912343
H        -1.42921588958659   -5.13063876420441   11.70584851242009
C         0.39217345643776   -6.25091322994245   11.95238945708838
H         0.12537193996690   -6.63600550872972   12.93318400975689
H         1.01124553235631   -5.36711028267221   12.08495976441977
H         0.98443082492391   -6.99982892991439   11.43208886014870
C         0.34383492791372   -4.18227128571631    5.11833507187018
H        -0.32140707608762   -4.63114941651975    4.37974799227844
C         1.73998093290351   -4.52614781390294    4.80022217890891
C         2.83594699525707   -3.70163241682931    5.43724958864487
H         3.80229654592599   -4.03107990457090    5.06187101056374
H         2.81087653278315   -3.79811200518862    6.52021158555917
H         2.67903485254750   -2.65095732804661    5.20270030400395
C        -0.04270609505295   -2.80904495117005    5.43729125849802
C        -1.46987289821022   -2.46143213227934    5.02214795134072
H        -1.81641087294809   -1.59455146483404    5.57990726833077
H        -2.14855589765219   -3.29666916303621    5.17272301772241
H        -1.46358375496851   -2.20784702183207    3.96291931733906

