45
CSD_code = BEFFOI | q = 1 | S = 0 | Stoichiometry = C12H28AuN2OS(1+) | MND = 2
Au        8.08867787178186    5.14109496961673   19.58127761399072
S         6.42466194463586    5.18536970911962   22.42721935248290
N        10.99948826394803    4.85878595249243   18.99054795983850
N         9.74399505540364    4.74248420318887   17.11238215439352
H        10.60621402944197    4.58890508629643   16.60418681544085
O         5.18120170882481    5.30505587090220   23.12742643037553
C         6.32342314041241    5.35809134542130   20.67636220696729
H         5.86942142089287    6.33754537955821   20.53934007524558
H         5.56909287674513    4.62819569015730   20.38866191135197
C         7.18689667365834    3.59565430954094   22.82772714612319
H         7.22024315368696    3.50048615021317   23.90756263588302
H         8.17967262097602    3.55956478584757   22.39736888292720
H         6.56326816616079    2.80915156160292   22.41558326026742
C         7.59826049299952    6.39800023329478   23.07639691049165
H         7.62073642828598    6.30021071206829   24.15628200278381
H         7.24230910377508    7.38809833836463   22.81115355938875
H         8.57384020156904    6.21615877867111   22.64388636299740
C         9.79539453340131    4.90569036464170   18.42411305339673
C        11.16021438706487    5.07439251882176   20.41535863337755
H        12.10788356254975    5.58982337054923   20.58442108605466
H        10.35298157459442    5.72693758468528   20.75786677483416
C        11.13448714676941    3.76117287119320   21.19379543531310
H        11.23091374922392    3.95389047808834   22.25862425994547
H        11.95437043518023    3.11556573614933   20.89100395749417
H        10.20108040953993    3.23381449980237   21.00593070235800
C        12.24530949855524    4.59825199619266   18.27512293173415
H        12.09209159465977    3.80946235208024   17.53190583822927
H        12.96697815019152    4.21199431894757   18.99632378800970
C        12.80944840723115    5.85866599428195   17.62221530335878
H        13.73248050351520    5.62163510832826   17.10081824023188
H        13.02595346607818    6.61101933957024   18.37653421099542
H        12.10922292728963    6.28851750959554   16.91025661034476
C         8.57996419667782    4.75387653004904   16.21838328701076
C         7.63087780664890    3.60181958587968   16.55395377969649
H         8.16324218356119    2.65372664915973   16.53229070393698
H         6.82882560865148    3.56363224452214   15.82323659152295
H         7.19279324877282    3.73248822273501   17.54025859271301
C         7.86159813687279    6.10243910697415   16.29285810981588
H         8.55274793621989    6.91187706446806   16.07004133432966
H         7.44156625214865    6.26794523727164   17.28164946223138
H         7.05448764510899    6.12800375770170   15.56720116862816
C         9.13172021255420    4.55541750914163   14.80449184428482
H         9.81888287522969    5.35704771616605   14.54069859477025
H         8.32014999388906    4.56010768272856   14.08327952525302
H         9.64953040462250    3.60183157391935   14.72050089917785

