43
CSD_code = BEFHAW | q = 0 | S = 0 | Stoichiometry = C21H15N3NiO3 | MND = 4
Ni        1.89587318560337   -0.04312828259429    0.49858880486372
O         1.31304212371013   -1.42902434909278    1.55699279295805
O         1.73418337827203   -3.51075704190776    2.18953704789763
O         2.32641642344027    3.72299897686031   -0.37978408095563
N         0.57830709856225    1.09856762002043    1.18563639310265
N         2.46994418778968    1.40654138577993   -0.53717448337132
N         3.21602275112768   -1.17893078884148   -0.09447186092694
C        -0.43499799182183    0.82123341309150    2.00121423344433
C        -1.25190253883721    1.81647445960190    2.51784171827557
H        -2.06717939030971    1.54989199941655    3.17160297581818
C        -1.00321703692925    3.14015912685287    2.18919247426874
H        -1.62069983034569    3.93221625922986    2.58457152018274
C         0.05734329115928    3.42527573709011    1.34475262279241
H         0.31545547225720    4.43019148461974    1.04902919785649
C         0.82158753352074    2.37501916395096    0.86037189266147
C         1.96073700344250    2.59456222495575   -0.09803315054262
C         3.37103817507557    1.36803026275552   -1.58227625766505
C         4.21389179956990    0.24042424559084   -1.78410049940090
C         5.14612048516914    0.26473880847324   -2.83587766777326
H         5.79760940501641   -0.58473504005103   -2.97323186193994
C         5.23667109372780    1.32729526060066   -3.70011457484514
H         5.96194624739501    1.31933609969656   -4.49893229514670
C         4.36895940241493    2.40237698115741   -3.54223332917419
H         4.40432734438618    3.23358256463586   -4.23021972747402
C         3.46142952085925    2.41992750294626   -2.51003662895954
H         2.80585376334624    3.26725892439645   -2.40435849396133
C         4.14031516696584   -0.95436835943039   -0.97378096440035
C         5.18194519023730   -1.99569268943800   -1.19831613847007
C         4.97046131859726   -3.01804398111360   -2.11712271761684
H         4.05333894341528   -3.04119277925488   -2.68818185304028
C         5.93728691675142   -3.98970111590886   -2.30413633989800
H         5.77012785611499   -4.77911207624572   -3.02143126477891
C         7.11439538619552   -3.94995928124357   -1.57520927035342
H         7.86659106459761   -4.70965311682279   -1.72224937077109
C         7.32630553515047   -2.93305338475820   -0.65955114934041
H         8.24377841553608   -2.89756590594436   -0.09143150624602
C         6.36398769500147   -1.95703833326131   -0.46843927233992
H         6.52811734539058   -1.15979639396249    0.24186789097758
C         3.23054798528968   -2.45675773036426    0.61652353514326
H         3.20249575008791   -3.29794105803290   -0.08376414267494
H         4.13702517343250   -2.55503774918436    1.22485805733438
C         1.99410124205488   -2.51908391805174    1.54852357521164
H        -0.58518388242041   -0.22202912621813    2.24855416927795

