95
CSD_code = BEFKUS | q = 1 | S = 0 | Stoichiometry = C31H56MoN7(1+) | MND = 7
Mo        4.08785061888272   14.79321007350925    6.10107716301060
N         4.08772015762960   14.78680310538937    9.34474113438498
N         2.71238217965338   17.37801678870514    7.34051263891559
N         1.33325080708770   13.35209400328261    6.78309382576327
N         3.29818746606332   16.06048167678698    3.12838021243126
C         4.08854157294927   14.78908385823803    8.19315459003259
C         3.18607118976795   16.48411451488253    6.76423230827666
C         2.20111653173789   18.36195656006755    8.21411695377256
C         3.38496680871705   18.95260726450544    8.98542890373508
C         1.22690179455586   17.66434877962960    9.16792873606759
C         1.49305971119456   19.43181244362362    7.38111496538740
C         2.30839344673381   13.85261921113200    6.38438634255008
C         0.18532572052986   12.78234121165190    7.37313422574854
C        -0.65421289836972   12.12841764176176    6.27298211000236
C         0.65808103599111   11.74408576895461    8.39562984285876
C        -0.59273318227836   13.90748868009431    8.06283220026279
C         3.72357479485991   15.39895861990906    4.18866447095591
C         2.53522299195055   17.31015476171301    3.13370522044940
C         1.22022800055964   17.09313833507767    3.88814037017628
C         2.24863703507519   17.68229482358367    1.67986233955068
C         3.37183691159166   18.40576264786273    3.80075623086251
H         3.49122376985585   15.69439872074630    2.19803755442994
H         3.02948376280567   19.69637785566259    9.69261429058032
H         4.08750218039974   19.42637574909477    8.30313740154782
H         3.90279693908506   18.16685226957815    9.53144237619301
H         0.85179482164223   18.37660116459216    9.89711921750657
H         1.73459489698104   16.85724506746454    9.69261762494543
H         0.38476519450601   17.24976534189804    8.61785394692216
H         1.08539587087750   20.19466167072889    8.03799577936502
H         0.67833617060029   18.99336416502595    6.80918251986998
H         2.19020335072110   19.90249828925838    6.69154801429349
H        -0.96764072008557   12.86900614911654    5.54048175894707
H        -1.53915276810118   11.67465268987456    6.70974499473294
H        -0.08175175810661   11.35619331997314    5.76385899734389
H         1.30407333667326   12.21234995759951    9.13546617033982
H         1.21311044606775   10.94913104872220    7.90245857972299
H        -0.19882820881054   11.30949684863578    8.90223393916052
H        -1.47829846575914   13.50147364078429    8.54328036984569
H        -0.90156064095671   14.65696975954613    7.33703135660163
H         0.02835890631928   14.38531274396204    8.81762758830457
H         0.65007610661463   18.01707080072903    3.91866221673749
H         1.41835568410599   16.76495573353166    4.90647104473118
H         0.62140030510411   16.33340997533251    3.38985926445069
H         1.68490260408007   18.60955468631770    1.63651033467562
H         1.66148407892999   16.90710791752965    1.19061192734238
H         3.17551476544141   17.82506458498635    1.12708663479227
H         2.80743343807108   19.33266067171665    3.84468027571217
H         4.28317038409570   18.58249648254791    3.23322333995910
H         3.64555675018835   18.10858532798825    4.81103175847242
C         4.99080588871459   13.09949665335360    6.75494979631073
C         5.86769490554529   15.73291667556404    6.38672244913095
C         4.44615956316747   14.19445562918609    4.18519382996106
N         5.46545583818129   12.20229253307257    7.32522504655371
N         6.84315117061228   16.23152285172987    6.78720262573414
N         4.86603903706310   13.53618940252504    3.12069366210246
C         5.98243983047528   11.21521131564470    8.19186268299402
C         7.98895590242497   16.80123649822974    7.38149700133539
C         5.62999157091677   12.28711815801989    3.11765642589398
H         4.66747622435212   13.90497682361198    2.19258320275847
C         4.80164704566070   10.60499493544706    8.95246106700538
C         6.94546191965057   11.91383564815107    9.15626522541795
C         6.70467556420156   10.16056244678443    7.35163024813119
C         8.84380353271003   17.43579240674764    6.28178957601855
C         7.51332719772896   17.85537128777130    8.38625014980010
C         8.75266685004432   15.67981921254693    8.09293859790275
C         6.94750237933373   12.50185139333196    3.86830442562422
C         5.91161738235276   11.92189945214304    1.66108216056862
C         4.79692667759881   11.18763623996040    3.78281171678911
H         5.16222365492342    9.85849848472929    9.65418312828245
H         4.10715854937342   10.12995816905254    8.26281987139722
H         4.27304319937890   11.37987685861794    9.50363457574832
H         7.32422073739443   11.19895640465270    9.88097839261298
H         6.42764127712467   12.71149655237817    9.68551559070617
H         7.78592087009263   12.34146847119116    8.61369649366542
H         7.11703011714782    9.39533924695049    8.00276523257980
H         7.51743770631135   10.61258082503606    6.78751556124099
H         6.01511891357878    9.68988650684706    6.65447474851710
H         9.15953266813163   16.68410542396651    5.56171834220469
H         9.72737940440385   17.88904677930530    6.72180696358441
H         8.28174018594219   18.20542001656473    5.75742413581142
H         6.85867776564350   17.40038495969281    9.12673124859048
H         6.96694274208989   18.64672801936965    7.87789381461521
H         8.36831197661938   18.29202825656499    8.89430532601987
H         9.63463700153531   16.08660338480582    8.57931577786748
H         9.06612907068953   14.92071892290064    7.37925507634170
H         8.12016557814317   15.21365640764419    8.84556800439225
H         7.51913767368883   11.57862236705793    3.89153813908139
H         6.75271144460375   12.82407426577343    4.88916388655474
H         7.54328426756174   13.26526151232051    3.37200909321589
H         6.47604572400270   10.99537268539128    1.61131046968407
H         6.49624096884149   12.69993100294841    1.17331879648709
H         4.98284104829110   11.78082944622316    1.11103524930036
H         5.36287161242868   10.26142131591984    3.82140964507112
H         3.88419680589003   11.01166048522965    3.21729664275357
H         4.52575665898653   11.48047026137928    4.79505184058876

