81
CSD_code = BEFMUX | q = 0 | S = 0 | Stoichiometry = C35H38ClN3O3Ti | MND = 6
Ti        3.36078477115483    4.09449262669783    2.94808470226313
Cl        4.11390855082931    3.57204932306814    0.86395525924535
O         3.84211396140743    5.79672819835600    2.83615649666542
O         3.33235590846427    2.42845313933785    3.50900672284205
O         5.77360962517295    3.77179018632730    3.38820547271995
N         2.35791064504390    5.78246555977183    5.40753798051053
N         3.58030787875697    4.16451225133972    6.12271287016564
N         1.59080832057951    4.29299471689774    2.37427677926793
C         2.94279260020667    4.64542231570776    5.06259616430825
C         2.60231634732024    6.17439780790271    6.79990677001153
H         3.04728907658278    7.17638635914396    6.83444303516586
C         3.61265159643476    5.09680355672670    7.25450413626412
H         3.28051957983352    4.59706871508559    8.17201276977729
C         1.73724555392292    6.70457750447936    4.48491702123084
H         0.95785176167533    7.26207542541854    5.01299199133354
H         1.29596604743907    6.10223481618246    3.67908055156442
C         2.78502680029053    7.63272941996855    3.92391770065339
C         3.80382682019734    7.07868158358663    3.11148306106883
C         4.78468117744210    7.94958646456672    2.60577526035595
H         5.54412169532926    7.53730004651934    1.95538531835789
C         4.76990886251374    9.29493897582668    2.91023632591646
H         5.53586749268050    9.94092468401255    2.50574400289465
C         3.78262972694944    9.82070528950433    3.72746314332991
H         3.77398297165765   10.87268277413071    3.96821077756854
C         2.79918973305057    8.98280536349682    4.22611213016813
H         2.01619907072142    9.38715113158113    4.85437812324751
C         4.32907636191649    2.92473964099160    6.15563972176337
H         4.71842735766943    2.79982958415186    7.16977052290285
H         5.17645299949853    3.00102633978763    5.46202785380323
C         3.46418986731356    1.74330475734781    5.78904813718954
C         3.03015723352579    1.57358988149005    4.45288528094010
C         2.25862275767850    0.43693031219179    4.15181167412099
H         1.95149539688287    0.29965487928195    3.12404493699020
C         1.90647682800753   -0.46976687223464    5.12801821081222
H         1.31000752349615   -1.33200833343245    4.86729533197321
C         2.31372126521511   -0.27995311346152    6.43931187230375
H         2.03682472188104   -0.98613851417041    7.20697645485883
C         3.08961363418649    0.82168233035374    6.75382015061281
H         3.42232552829908    0.96591132295617    7.77351149115486
C         1.32273230618696    6.14315383950846    7.59450079888351
C         0.47212852359700    5.04849660057908    7.48301799274609
H         0.72799192031815    4.23918186776899    6.81282786123960
C        -0.69821606181119    4.99920850261158    8.21753352877364
H        -1.35430584535372    4.14680380226071    8.12424286082532
C        -1.02842442416612    6.04023258261059    9.06998102159966
H        -1.94268657298092    6.00103010718908    9.64292543539274
C        -0.18512156394590    7.13201607531953    9.18418241837217
H        -0.44012950243248    7.94648364110742    9.84576603018884
C         0.98619487476286    7.18407698917327    8.44826177883992
H         1.64451223292821    8.03681551517425    8.53662468913886
C         5.00225765339765    5.65604664469060    7.42653610994949
C         5.68070030306125    6.14120238339603    6.31293734472387
H         5.20992494509945    6.09996191729469    5.33850738942210
C         6.95154481784391    6.66789060519564    6.44653030848689
H         7.47003715360189    7.04620384332802    5.57780783250091
C         7.55653137475376    6.71463067687917    7.69235404187294
H         8.54990268363460    7.12465274587830    7.79630492280811
C         6.88508799712076    6.23489982419072    8.80362204462233
H         7.35309237195712    6.27028902999267    9.77613446440306
C         5.61196497610277    5.70693442162525    8.67173011278502
H         5.08735892550466    5.33485414156135    9.54060585839603
C         1.32913884437766    5.04883732448333    1.17117811219214
H         1.41022472315019    4.41288797530935    0.27195982407607
H         2.05114083691256    5.86539693779251    1.07653080328134
H         0.31137225925046    5.47532390128555    1.18912246496529
C         0.60065955813903    3.26024162289950    2.55363304460557
H        -0.41504424816197    3.68593412467077    2.49014746324884
H         0.71617032082837    2.79532902564240    3.53718048413155
H         0.68015617038039    2.47858404448528    1.77634001540012
C         6.31537348179161    2.51365931772077    2.98713989541873
H         5.86969087579591    1.73126462846211    3.60509922599958
H         6.06444312182284    2.33255847506513    1.93310028556264
C         7.83362520861809    2.65334481604404    3.17031852161575
H         8.37293847361688    2.07003236207870    2.42792409556724
H         8.13583627136150    2.31389675004930    4.16120358727178
C         8.06946374190888    4.16474998199639    3.01471954088874
H         8.52271565821322    4.58171492117032    3.91403444205686
H         8.70955416502642    4.39741899785911    2.16673247832356
C         6.65316583170284    4.72733457899762    2.80879258770372
H         6.42343081929173    4.82578774032851    1.73777995785912
H         6.49370674558336    5.68257626542829    3.31197211752883

