81
CSD_code = BEFNAE | q = 0 | S = 0 | Stoichiometry = C35H38ClHfN3O3 | MND = 6
C        11.74597398237952   12.45815483514186    7.52969221069349
C        12.25304235082670   12.26000368566570    8.80588408901153
H        11.72401762537040   11.62057942313631    9.49838352195001
C        13.42787668340657   12.88105646077574    9.19447101532125
H        13.81461013921675   12.72246732124913   10.19005494376122
C        14.10530043724740   13.70142639518648    8.30897873784078
H        15.02196285770653   14.18424640826935    8.61242707210512
C        13.60438731400892   13.90265162408440    7.03278001808334
H        14.12707492973355   14.54344580483129    6.33847053772996
C        12.43063736186866   13.28470823801771    6.64403972349201
H        12.04070303594572   13.44663502697659    5.64810016673831
C        10.50621387708679   13.74012667697200    2.54190465426372
C        11.52678221334137   14.52813790850777    1.97689676888194
H        12.06865823580753   14.11634073534095    1.13814277911566
C        11.82514920245157   15.78446697360379    2.45799666231376
H        12.61885329584243   16.35741971776445    2.00005310989652
C        11.11176930004565   16.31543920087967    3.52077682690682
H        11.34225001760082   17.29836627777146    3.90225191060770
C        10.08915415267268   15.57010411436839    4.07984183578151
H         9.51485606107417   15.98280084967692    4.89946131898281
C         9.76757046732361   14.30713824858440    3.60799423203877
C         8.69104290561807   13.49564388564716    4.28388164394770
H         8.01100735786337   14.13407982087319    4.85173644773990
H         8.12676527766827   12.90699879259543    3.54619757984528
C         9.38268653522665   12.79635986874001    6.64521252822191
H         9.69003205796160   13.82731782746288    6.85401420999099
C         8.04727296048370   12.50353386222476    7.27942867750638
C         7.48568256618603   13.37445766444773    8.20200806877759
H         8.00478430373116   14.28608334727598    8.46291577479755
C         6.26755457405872   13.07761667123470    8.78890533466063
H         5.83633662735934   13.76101516173081    9.50521101530177
C         5.60358171497831   11.90944060829125    8.45626989497567
H         4.65277031275892   11.67988155231991    8.91327943930503
C         6.15981740298902   11.03691734334574    7.53484936042336
H         5.64590498277422   10.12499519746518    7.27123395559278
C         7.37652987890159   11.33093824083585    6.94844479522193
H         7.80609267172593   10.65122741720816    6.22491135170314
C        10.47359382315759   11.78905815932435    7.07963412762386
H        10.09945599191544   11.10859856595146    7.85278562153578
C        10.05786131682525   11.54685770825379    4.79493562292837
C        11.40326824670444    9.77944608582773    5.81682880593406
H        12.04691992861819    9.72139091073335    6.69819771592668
H        12.01543563751473    9.73376657900165    4.91051617150463
C        10.39238374495863    8.66198757627569    5.79712709280185
C        10.04785030623557    7.99260289842091    6.95985755377354
H        10.54561884373970    8.25655520098586    7.88432710749325
C         9.09756631249256    6.98794507380102    6.95460013870707
H         8.84163769808138    6.47490319280103    7.86896050517956
C         8.49139711676405    6.64090555685400    5.75710204008781
H         7.76030764091154    5.84556628170878    5.73442982287447
C         8.81486118490581    7.29999278684140    4.59066425195180
H         8.35437976741202    7.02322311267244    3.65399501189537
C         9.75247831227408    8.34788024504910    4.57565484980331
C        13.30553654745470   11.58848008321628    2.73605444578280
H        13.01000575622332   12.40160502861595    3.40122310192719
H        13.47564778716089   11.99067608005600    1.72890550230319
C        14.53696054206562   10.80944406496818    3.21969080175349
H        15.45194963386063   11.20582504427661    2.78581757771806
H        14.61993316603728   10.86553052818097    4.30487925048541
C        14.24524370183894    9.36826852964498    2.76338414532288
H        14.24239594095557    8.68417056121624    3.61091870664763
H        14.97557611195572    9.01096753907781    2.04108879010443
C        12.84786456138307    9.46438320473460    2.12986853937492
H        12.91675003627577    9.58203017824777    1.04126616667216
H        12.19291341661157    8.62056969270042    2.35533541559009
C         7.39234387357380   11.44048960476357    1.29484097066830
H         7.45354147222280   10.65800870002465    0.51937640175135
H         8.02044728573948   12.28238313146724    0.99019233121642
H         6.34598881862276   11.78275586797775    1.34049704103167
C         7.04933508928405    9.78343827868524    2.95348827245194
H         5.97339028009707   10.01876867269482    2.94790862586774
H         7.31444569910330    9.45210939957722    3.96094309252571
H         7.20863395013534    8.94792789528877    2.24675773078513
Cl       10.11513112122727    9.83018960876658    0.53869161497723
Hf        9.82551216440680   10.74209398768953    2.65801649673299
N         9.31931894613863   12.56559248304735    5.19967657123506
N        10.71787253947473   11.05354076505148    5.83326275806090
O        10.26192159621444   12.54386385144663    2.05214921934162
O        10.04678630741563    8.96845823822576    3.45051054028541
O        12.25476396257370   10.63352731953393    2.69733324155097
N         7.82246814818478   10.95569853781048    2.59780399430356

