83
CSD_code = BEFNOS | q = 0 | S = 0 | Stoichiometry = C38H28Br2FeN12S2 | MND = 6
Br        0.22053861053560    2.64871400254801   -2.10618926302985
Fe        2.55640653498812   -1.14296946974559    6.40102333719999
S         3.24619457878657   -2.65258870589979    2.25313263529423
N         0.85673099578606   -0.94017545121579    5.43284028761232
N         3.07330575511470    0.31318072690452    5.17389936489750
N         4.18010433928014    0.98173705005521    4.86357605051163
N         2.73689011535400    1.27360064590290    3.23314730916316
N         6.12268737521230    2.78922226072771    3.60507314123085
N         3.11208967593073   -2.32879410615667    4.99329661826738
C        -0.28048410703818   -1.57389634304716    5.69367206014526
H        -0.26638756828390   -2.20168682334029    6.57149699313382
C        -1.40647396465064   -1.46380299324252    4.89669682499108
H        -2.30349248418531   -2.00547185795080    5.15094546163508
C        -1.36154828483759   -0.65132352942614    3.77043739872830
H        -2.22156089577890   -0.54390091093322    3.12782715721824
C        -0.18764404388801    0.02033954742282    3.48587648946785
H        -0.11429727622756    0.66315068846477    2.62355602746720
C         0.90480959706223   -0.14655464250716    4.33392978338111
C         2.18834736667634    0.48123846466708    4.20215347170270
C         4.00040238438205    1.56158957531951    3.69409710653870
C         4.96624540315592    2.35918710855511    3.00531304837306
C         4.97139668330862    2.82730648778999    1.69650802798051
H         4.22458592963540    2.65036784519423    0.94982087922502
C         6.15192542284407    3.55051610382400    1.51806090738506
H         6.46780676821856    4.04429593564448    0.62138238739455
C         6.83316353234726    3.50724025511752    2.71179291879286
H         7.77640420516622    3.94438918527978    2.97550143795045
C         6.54220459615466    2.51285512760746    4.94929889477083
H         5.71766254123300    2.66385920176799    5.64485686212432
H         7.36654980388689    3.17637004410828    5.20622466821701
H         6.87328590715215    1.47639317456045    5.04006075419507
C         2.15491539221130    1.60158250223810    1.98948562359963
C         1.66522343057737    2.88375321000368    1.76836936076233
H         1.73930159786855    3.63078791175675    2.54378803874406
C         1.09189308682054    3.19467418862584    0.54943142077560
H         0.70897233508112    4.18570242685806    0.36218862430302
C         1.01398272467678    2.21797098334603   -0.43157765701352
C         1.49776953149539    0.93659555255585   -0.21645278247985
H         1.42951195330063    0.18917311763022   -0.99115138969395
C         2.07181401865518    0.62555549508086    1.00186575885684
H         2.45296287831577   -0.36775974476599    1.19343971867780
C         3.16486063138038   -2.46038581305974    3.82693906153605
Br        4.88932647808821   -4.94556346044300   14.90862882312032
S         1.86657704714687    0.36476910471643   10.54799090749585
N         4.25612795171717   -1.34513836456725    7.36956555300871
N         2.03975555985995   -2.59920846265485    7.62940114174360
N         0.93309013841239   -3.26761652556282    7.94017420060659
N         2.37633676924110   -3.55766582301900    9.57098845986830
N        -1.00431874936399   -5.08199428109227    9.19634269459041
N         2.00170378791265    0.04291084848818    7.80767617813351
C         5.39315412353325   -0.71139661404586    7.10818859689359
H         5.37927416529196   -0.08519555388177    6.22926408076793
C         6.51879385592302   -0.81937398588624    7.90594800044548
H         7.41542369775662   -0.27724265794738    7.65130139076285
C         6.47367030235796   -1.63004059887254    9.03346278534287
H         7.33316282220970   -1.73538017246561    9.67710997468359
C         5.30021316860146   -2.30253792732384    9.31806423390227
H         5.22699817555764   -2.94426552320118   10.18120771188916
C         4.20804324368876   -2.13762651753448    8.46928531759733
C         2.92468621098644   -2.76585440939935    8.60140475549304
C         1.11291719649829   -3.84619365701967    9.11019375173279
C         0.14657884603017   -4.64253924443910    9.79975142399472
C         0.13487937300037   -5.09919802526180   11.11242279982184
H         0.87626768009377   -4.91246283995979   11.86216421506020
C        -1.04436442333807   -5.82485972918785   11.28976514946199
H        -1.36461229463848   -6.31159192526798   12.18873603038401
C        -1.71795805203095   -5.79478679255406   10.09132948596640
H        -2.65761368571985   -6.23807187032746    9.82519922327194
C        -1.41674019961292   -4.81744910998642    7.84763048047211
H        -0.58688727491888   -4.96764491149560    7.15851239468789
H        -2.23474756720894   -5.48809973942867    7.58960460780037
H        -1.75393652728778   -3.78394526219291    7.74769094154201
C         2.95783772417800   -3.88777386807750   10.81425551360810
C         3.44104155910883   -5.17246327668647   11.03499517082313
H         3.36281708712210   -5.91894967392914   10.25946920336024
C         4.01370056241591   -5.48656243123813   12.25340796458532
H         4.39180236905119   -6.47952063829251   12.44015537157852
C         4.09739368880014   -4.51039716377296   13.23445519507770
C         3.61994458471832   -3.22657060579838   13.01980230359086
H         3.69247735401268   -2.47974178475472   13.79467614057152
C         3.04662090411074   -2.91231330409404   11.80193793210830
H         2.67028036393527   -1.91706534308009   11.61091907824262
C         1.95242490501374    0.17698369114733    8.97388599749458

