64
CSD_code = BEFNIJ | q = 1 | S = 0 | Stoichiometry = C29H32AsNRh(1+) | MND = 6
Rh        6.44728889853309    6.63228440136433    3.77140523911331
As        8.80018172006530    6.71132211920238    3.47474057189950
N         6.47459855681009    8.80171765446007    4.17211123704304
C         7.51716553567031    9.20734731089629    5.16414457398527
C         7.57210047586957    8.20872570328640    6.32685497613759
C         5.17499907179254    9.24300047189815    4.70174456612630
C         6.67673035386855    9.50152889373623    2.89514699814566
C         9.61157691731391    8.42342106627447    3.90401001827593
C        10.90700024060451    8.67577479321962    3.46594392245191
C        11.51982633964078    9.88992823233781    3.71438494968084
C         9.96354907287891    5.46427271525176    4.39439936262306
C         9.99914610475366    4.13987747921458    3.96516900984294
C        10.78747230507857    3.21396468229583    4.62428489282759
C         9.28005631940883    6.46007461337366    1.61138802936095
C         8.30162326759008    6.75635192288159    0.66670765229613
C         8.56903300946334    6.62907546202748   -0.68432081408365
C         4.82448485372353    4.57824748918245    4.65853108316797
C         4.47778475176702    6.05805465586775    4.49110472872290
C         4.40127519903426    6.28739896200335    3.13286844287085
C         4.69673755471688    4.95119460898770    2.45015831872573
C        10.82720412343219   10.87184003181048    4.40165960779460
C         9.53529118113917   10.63100996421467    4.83344473943554
C         8.90864972650664    9.41183275122337    4.59465564222485
C        11.53710370164694    3.60226507459539    5.72381323371834
C        11.49680556286008    4.91503072516415    6.16324330217963
C        10.70901696298925    5.84396033995764    5.50441996225049
C         9.81845492619245    6.19628880128831   -1.09925203126781
C        10.79127127407150    5.88085887097081   -0.16456858900228
C        10.52467775306890    6.00930024686523    1.18810532869655
C         6.18026042298705    4.78786882978587    2.76927253978806
C         6.25914572322814    4.55989890438870    4.13976273939440
C         4.07607057187376    3.97252098213999    3.45997136296257
H         4.65158979197436    4.14424431274564    5.63824922552106
H         4.04224853182151    6.64749843364857    5.28458033790562
H         3.90252467882754    7.10301022445318    2.62598840332251
H         4.40587753694300    4.85918183193841    1.40840910951966
H         6.91742846623082    4.51243666692174    2.02344209774849
H         7.07862497952100    4.08938417034612    4.67288063933663
H         4.34300011784511    2.93433097978358    3.26883544316893
H         2.99407344360814    4.06854318764369    3.53910330253648
H         7.21340853387141   10.18325226074583    5.57146493343149
H         6.68391140023581    8.27368969744689    6.95037748065473
H         7.66494802638234    7.17794590070197    5.95279437019539
H         8.43369126822819    8.42841568903135    6.95346244901808
H         5.15863471791453   10.33298110447630    4.81797716074359
H         4.37365091443727    8.96628740378808    4.01937665158993
H         4.98287228037928    8.79274079207201    5.67259991677157
H         6.68818259134636   10.58731147595141    3.04258597196602
H         7.62166907219279    9.20856957299710    2.43192663169302
H         5.86075307675018    9.25528125243098    2.21407885569617
H        11.43908330394691    7.90169140725012    2.92427202373621
H        12.52781833008762   10.06942482685768    3.37366495351621
H        11.29034552539217   11.82531609835412    4.60161572546461
H         9.00700473382983   11.40558687658380    5.37176780324538
H         9.41119021579099    3.84549336108969    3.09947234088397
H        10.81858181840344    2.19040499825707    4.28209703044128
H        12.15269689889094    2.88034510550615    6.23770704510709
H        12.07985601960801    5.21655230615409    7.02039247025418
H        10.67756610940777    6.87379124409692    5.84588433387987
H         7.31573120179829    7.07464843658420    1.01102630656740
H         7.80683016241224    6.86090377847829   -1.41316498749630
H        10.03088943884290    6.09470431336573   -2.15225344353271
H        11.75907706629357    5.53005093808973   -0.49000325715123
H        11.28025726824374    5.73974259203076    1.91918307689684

