83
CSD_code = BEFNIM | q = 0 | S = 0 | Stoichiometry = C38H28Cl2FeN12S2 | MND = 6
Fe        6.92147806017804    4.29608713754167   -0.00011779751796
Cl        9.19632050057709    0.62599864648257    8.39141573670509
S         6.09891467532405    5.80957509139213    4.12379157962945
N         8.61047872248310    4.12182557724567    0.98871534771238
N         6.40457891513426    2.84188154459986    1.23964765827663
N         5.29939919309729    2.17302160023671    1.55544989768603
N         6.74115217452655    1.90291504399381    3.19076571910323
N         3.33230268159373    0.42456721270570    2.85463739061277
N         6.33197703254551    5.48669637746264    1.39017020536764
C         9.73994520878666    4.77329348959052    0.73740393421766
H         9.72443312184256    5.39761704035002   -0.14270735284496
C        10.85910642233342    4.68436075273717    1.54634990972473
H        11.74944816126622    5.24015285131223    1.29894643972292
C        10.81503761441796    3.87618718189385    2.67582110196042
H        11.66942804498941    3.78605400299750    3.32852267983026
C         9.64923001525920    3.18659433050715    2.95125756012282
H         9.57579595209971    2.54848741349327    3.81704468969830
C         8.56405605502119    3.33146586571661    2.08993751295436
C         7.28779080911588    2.68736418522530    2.21499799877576
C         5.47930838241965    1.60663335434482    2.73216442809137
C         4.51676776010086    0.81149587106822    3.42848295662438
C         4.54418705028060    0.30217691070158    4.72156938931653
H         5.32134169935723    0.43458801322474    5.44591001795685
C         3.35406371918786   -0.40079040902999    4.91687802155113
H         3.05683321620959   -0.91618454694135    5.80773450876988
C         2.63486562709998   -0.30483466125895    3.74900021914182
H         1.67330921455128   -0.71190177275965    3.50391809926243
C         2.87388552310667    0.75360933648650    1.53541531942517
H         3.65840372828714    0.56931112889317    0.80224872286105
H         2.60108048691222    1.80923500855355    1.47936702428399
H         2.00192899652127    0.14412546667902    1.30254991643862
C         7.32612819532999    1.58936272285296    4.43795442921280
C         7.88997669235713    0.33602614866601    4.64515367750840
H         7.87038313916724   -0.39962347801015    3.85560844199572
C         8.46650129656078    0.03908735241390    5.86605963926539
H         8.90587443102796   -0.92974980671036    6.04168783805826
C         8.47597891865504    0.99930388582239    6.86828891670728
C         7.91754180156745    2.25310705226501    6.66242463284397
H         7.93245678152397    2.98971395424234    7.44943781338428
C         7.34047533304988    2.55088847323915    5.44215849913748
H         6.90526388033072    3.52331161198409    5.26059794628834
C         6.23824380192342    5.61772710697831    2.55399023123151
Cl        4.64177385669509    7.96856577256262   -8.38904866757043
S         7.74591212746862    2.78598234393219   -4.12456958243599
N         5.23242964496051    4.47032185747504   -0.98874976305515
N         7.43830316460992    5.75059271378699   -1.23998793195555
N         8.54342877921489    6.41930646799943   -1.55617526564752
N         7.10057333477096    6.69073712006504   -3.19030154483568
N        10.51148796385548    8.16529049609854   -2.85664381017258
N         7.51119501852021    3.10566460044152   -1.39071789188780
C         4.10318166865354    3.81843125742371   -0.73750601165836
H         4.11899509999861    3.19370405827342    0.14231709778473
C         2.98377317278309    3.90759439422805   -1.54608692121851
H         2.09362141917603    3.35146959126862   -1.29873755552620
C         3.02736713323043    4.71638797273423   -2.67512730888324
H         2.17282412243057    4.80656276018705   -3.32762311843866
C         4.19293584667434    5.40643828304011   -2.95045504143090
H         4.26602222724923    6.04494517327311   -3.81597312746322
C         5.27833920531851    5.26141565126226   -2.08944830496951
C         6.55447419198577    5.90581122033780   -2.21462909523388
C         8.36283322050051    6.98645991521826   -2.73244384583782
C         9.32490551807883    7.78217819935343   -3.42871312590211
C         9.29489475783118    8.29619170318683   -4.71991338742164
H         8.51554940190390    8.16779617134425   -5.44262254986675
C        10.48542565749318    8.99828247775901   -4.91574272409479
H        10.78103933437466    9.51659205285191   -5.80544761333981
C        11.20767421396288    8.89680962995453   -3.75020896721770
H        12.17052176808559    9.30146409310377   -3.50621589851321
C        10.97288880113641    7.83074734389884   -1.53985495791126
H        10.19153804202443    8.01618585294733   -0.80358212651859
H        11.24160687739698    6.77387606046956   -1.48768849160151
H        11.84807411989473    8.43605630439770   -1.30820421033350
C         6.51482378456320    7.00463418340417   -4.43707294102183
C         5.94758276701904    8.25674388711558   -4.64245557386222
H         5.96523406617861    8.99132642287156   -3.85186711141458
C         5.37018538007622    8.55385627896679   -5.86291122479291
H         4.92820649038788    9.52176212576411   -6.03715302501496
C         5.36322032353356    7.59503765776201   -6.86650303513447
C         5.92500736275039    6.34244216871732   -6.66243367822004
H         5.91191933282420    5.60686448396596   -7.45044095009071
C         6.50294765948294    6.04449319007385   -5.44261946462423
H         6.94056478658549    5.07291056056153   -5.26239020456717
C         7.60474532052537    2.97590343182719   -2.55470194925543

