33
CSD_code = BEFPOR | q = 0 | S = 0 | Stoichiometry = C15H14MnNO2 | MND = 8
Mn        8.28993917708080    2.00981758151110    3.40363541764237
N         7.07358427545110    0.84070158200423    1.99696241899289
C         7.73402948954159    3.52306080238733    4.87027566381678
C         6.64847293361012    2.65309023059339    4.66644373901966
C         7.04858338902689    1.35460922714280    5.06545803750518
C         8.37943972222996    1.41911746328591    5.50714503569002
C         8.82403731482726    2.75974734364814    5.36330875281544
C         8.67248701525950    3.20887384106227    2.16826439897605
O         8.92216908169040    4.01479533747561    1.37160371480514
C         9.74890990211611    1.11503347298746    2.98718736315115
O        10.71763821564151    0.52359179773693    2.74375038576921
C         5.72911525283037    1.32935720721484    1.95035386924134
C         5.46216224325071    2.48978057773989    1.22921280274754
C         4.17977717252459    3.00375277390964    1.19866981380827
C         3.15438461805602    2.36436414971345    1.87813703719195
C         3.41717555565258    1.20542587375340    2.58729513367956
C         4.69842428732123    0.68168621298921    2.62031732408813
C         7.61142665900640    0.39098593768134    0.71474761259914
C         7.25885543403800   -0.58337474932683    1.76503442678627
H         7.70917012555306    4.60092212653671    4.78266477284381
H         5.63793362095759    2.95367033898116    4.42096911850360
H         6.39568139778504    0.49606802905480    5.16380264670486
H         8.92828144248836    0.62248587829218    5.99042118514223
H         9.74884305711569    3.16227790562086    5.75656802810779
H         6.27320625031252    2.98911435310132    0.71847081619657
H         3.98029573375392    3.90807486055205    0.64417467113596
H         2.15445027147459    2.77020670351467    1.85730167531471
H         2.62282077759983    0.70281272016880    3.11905491837170
H         4.89724659750607   -0.21800173878820    3.18506341107339
H         6.94860815425613    0.48428344109883   -0.13811793355138
H         8.65121574381147    0.62659291744574    0.52332267911141
H         6.36502036311068   -1.17991484535885    1.62443035552891
H         8.04781472512079   -1.06160935374426    2.32967070718300

