51
CSD_code = BEFXUG | q = 1 | S = 0 | Stoichiometry = C22H27IrN(1+) | MND = 9
Ir        8.46881130794579    4.54695327604073    2.46153616880813
N         6.82454732953877    3.53273362555798    2.24902074900409
C        10.60000551998229    3.78218995274647    2.12493123903089
C         9.73133988555034    3.30203842560575    1.11761170666988
C         9.22453379706590    4.45227323037191    0.37059382143110
C         9.79388378454414    5.62306688096013    0.93638954220403
C        10.55449581767271    5.22183612263585    2.08590488611188
C        11.48137548217070    2.97258295937622    3.01061575158869
C         9.57109339247365    1.87852081776760    0.69271542867302
C         8.49183694931112    4.37346573923732   -0.92782787915613
C         9.70633250195420    7.00415587829795    0.38370822332042
C        11.47305618152941    6.11362636820557    2.85576714410044
C         4.70841232496822    1.13022103039255    0.86298488714253
C         4.75443895309996    2.12618323119620    1.75001961959531
C         5.89657618983521    2.88292510046352    2.00382554242672
C         7.24610705940512    6.13868514225515    3.33516027275958
C         8.21776611075352    5.70643585374598    4.26967841729684
C         8.14638244311048    4.38252950810018    4.75559102688490
C         9.15384580198453    3.74152693402412    5.58446976200442
C        10.26810261420326    4.41321690328574    6.10119175560237
C        11.19165188880328    3.74829893162856    6.88545137143212
C        11.03696543501166    2.39857146612005    7.15941341258797
C         9.94045222843317    1.71685515514918    6.65285419724829
C         9.00923434293830    2.37965155080665    5.88012324217658
H        11.50521226831412    3.37159833732996    4.02369000600823
H        12.49984122827227    2.98971428492492    2.62042531341876
H        11.15170933839803    1.93842502855612    3.05752190959645
H         8.61022363144126    1.71615989896778    0.21061781359396
H         9.65495571286675    1.20044790407670    1.53844941010901
H        10.35414073642076    1.62651446636906   -0.02360708242436
H         7.80655873217044    3.52969269583878   -0.94950831109653
H         9.21071629326782    4.24510169210669   -1.73827916710889
H         7.92788348774923    5.28285641316404   -1.11771008777640
H         9.82445402733189    7.75311457556264    1.16234898328568
H         8.75835756021361    7.17113505538261   -0.12137050881143
H        10.50539438393505    7.14963349157573   -0.34465303609960
H        11.04858474407347    7.10549418836084    2.99605560774190
H        12.40554835823909    6.22878380341796    2.30119064576682
H        11.71435124654534    5.68771948417622    3.82656923608972
H         5.56704678150291    0.84195066641477    0.28017886354103
H         3.80088347216150    0.57657956953454    0.70024443733125
H         3.88643563477216    2.40880219235015    2.33301882775677
H         6.21886160926057    5.80661174447609    3.45256873531799
H         7.33018158991630    7.14663151978545    2.94968831217554
H         9.05614712014044    6.34650929685188    4.51791685307334
H         7.16370343117675    3.91578093737055    4.80764386829511
H        10.39610032621738    5.47011667937140    5.92403065757615
H        12.03646087260817    4.28651916376859    7.28809352578077
H        11.76179738616622    1.88373358573876    7.77010102956271
H         9.81110770687497    0.66757359031950    6.86943122632568
H         8.15499497767801    1.84665565023528    5.48831264202582

