99
CSD_code = BEFYIX | q = 0 | S = 0 | Stoichiometry = C38H56P2PtSi2 | MND = 4
Pt        5.29250412360671   -0.07485112663266    7.22647699271973
P         4.25630293050643    1.29628636937266    8.71865928321418
Si        7.95198471299286    8.93443444403385   -0.06740225789163
C         5.71270194025499    1.43595070552863    5.98682758655886
C         5.98264951407985    2.35493546679529    5.24113125185234
C         6.29364177084320    3.42796278624178    4.37654611167239
C         5.51674480224584    3.67253368051583    3.23923818820980
H         4.67059472224709    3.03137170744776    3.03159146161724
C         5.82230451821957    4.71553540428971    2.39385721243034
H         5.22076279613994    4.90308835597388    1.51536643741535
C         6.91583689217336    5.54353545076493    2.66192484852800
C         7.69337101336788    5.30297081857267    3.79835895831648
H         8.53828784124089    5.94502312095315    4.00493354189706
C         7.38571665091002    4.26055519536028    4.64329860918313
H         7.98802970873270    4.07508461923628    5.52234367852784
C         7.23494961450684    6.61203247456913    1.79554288254051
C         7.51419174700640    7.52880609464607    1.05554855382930
C         8.84558267027268    8.24286696899743   -1.60446295277477
H         9.75272176306973    7.71495551223086   -1.32590224447543
H         9.12407138159824    9.03590330787205   -2.29299763758707
H         8.21374801605245    7.54433744860079   -2.14490188892316
C         6.35102998470893    9.83069048426179   -0.58854217324780
H         5.81835655735826   10.21656690459176    0.27547893630862
H         5.67872657691546    9.15901732942324   -1.11397463424975
H         6.56059258411189   10.66866087252926   -1.24763859860121
C         9.10007961008174   10.12965309131202    0.87666700843788
H         8.61454895017446   10.51886977175405    1.76661190244053
H         9.38718924336653   10.97721545471773    0.26054437947986
H        10.01052966489184    9.62947024242203    1.19309965880304
C         4.59461665560451    1.02224955661629   10.51039241009498
H         4.40883751349908   -0.04252546989801   10.68012836735253
H         5.66538954410306    1.18864176678847   10.66440999217068
C         3.77898177183900    1.86839773585913   11.47906627450545
H         4.00531244734209    1.57399964678946   12.50232661206813
H         2.71288437604154    1.72809862184872   11.31687539741892
H         4.01105749852435    2.92580424900375   11.37623883646438
C         4.35189547558237    3.12339938372194    8.50218996274460
H         4.04674633663658    3.32875145671776    7.47264614310595
H         3.64507285214053    3.61343293207686    9.17707032423239
C         5.77184194264737    3.62889334353886    8.71848295433930
H         5.84566784586173    4.68427355503160    8.46407961758381
H         6.45567255898736    3.07262948812866    8.07798897984466
H         6.08266188310155    3.50166932585639    9.75369132686291
C         2.45528255394943    0.95724778081245    8.54849630155103
H         2.24962843727679    0.03906425750764    9.10634277138163
H         1.86000451067061    1.77090491871138    8.97133294580311
C         2.12931203186270    0.74998084304259    7.07209176903737
H         1.10657909711777    0.40134125589257    6.94074903088234
H         2.81318314692474   -0.00042622069366    6.65027268776789
H         2.25474817180442    1.67577811110638    6.51359737586525
P         6.32869659211758   -1.44565671602557    5.73449983012956
Si        2.62476132224297   -9.08498572171875   14.51624905640627
C         4.87228857433851   -1.58530977526858    8.46650543137138
C         4.60082696822124   -2.50385972845587    9.21226074817269
C         4.28885549114171   -3.57695815918294   10.07635535902848
C         5.06485571366438   -3.82265233426775   11.21403193164089
H         5.91126935063404   -3.18218232715521   11.42273729152601
C         4.75813386206542   -4.86607117693291   12.05848017732516
H         5.35907976959545   -5.05465829376218   12.93715856961305
C         3.66437320501202   -5.69334913721347   11.78913865406802
C         2.88767779029572   -5.45159042419791   10.65237474410382
H         2.04255322069816   -6.09303323678516   10.44475741455168
C         3.19647889006981   -4.40875350184137    9.80837478705383
H         2.59488908730941   -4.22222507041532    8.92905063349949
C         3.34459970129053   -6.76258855895381   12.65436923142822
C         3.06370302369691   -7.67919720129256   13.39395265994796
C         1.73091154758980   -8.39346688935732   16.05319025288488
H         0.82443188709706   -7.86445002424786   15.77458769149908
H         1.45134673789544   -9.18668085231711   16.74108291538567
H         2.36324458953179   -7.69594465505449   16.59435623350730
C         4.22465486860465   -9.98250286888160   15.03850580690422
H         4.75826290237513  -10.36796974933249   14.17488040866426
H         4.89662147866663   -9.31168256748867   15.56545254898315
H         4.01370446380484  -10.82091826649386   15.69660062022474
C         1.47697763625782  -10.27938730184809   13.57078937410652
H         1.96305315544884  -10.66818639285621   12.68095385294587
H         1.18936131065497  -11.12725730270652   14.18624095696920
H         0.56680976461918   -9.77891579642470   13.25401163213474
C         5.99063207485018   -1.17212715469393    3.94266502406147
H         6.17624963390193   -0.10737092460801    3.77267273528191
H         4.91991823637032   -1.33878235095398    3.78845667578088
C         6.80666067524615   -2.01840896213051    2.97440651657349
H         6.58081391856571   -1.72401304706024    1.95104299019835
H         7.87271616235478   -1.87823693459419    3.13702646309746
H         6.57443183868933   -3.07579403060918    3.07711910970567
C         6.23309423359146   -3.27266227917445    5.95124586397671
H         6.53808698749317   -3.47801226844210    6.98083223074372
H         6.93998858870551   -3.76277823696273    5.27649907579537
C         4.81317642402658   -3.77816031945316    5.73479548983323
H         4.73935459709648   -4.83359969195357    5.98893988645300
H         4.12927859170431   -3.22207939044635    6.37537469842216
H         4.50240445727305   -3.65071955586380    4.69960579173895
C         8.12964715424381   -1.10651385178492    5.90497951439258
H         8.33524570536072   -0.18829621358390    5.34719756384506
H         8.72512427293259   -1.92007143826756    5.48222993200288
C         8.45537217319874   -0.89919274700385    7.38143096671894
H         9.47811498655479   -0.55063544311422    7.51302013517536
H         7.77144423195155   -0.14870520927350    7.80302743901314
H         8.32969319785495   -1.82497541435953    7.93988790576539

