41
CSD_code = BEFYIU | q = 1 | S = 0 | Stoichiometry = C8H22CoN10(1+) | MND = 6
Co       15.04794287213839    6.54445485048391    2.21533080468527
N        16.02957357026345    7.47629955242873    3.53049743735238
N        15.92755127108070    8.57725205536732    3.92067663757781
N        15.89180398820670    9.62234707113604    4.35713979099245
N        14.22895141943763    5.58083422801724    0.81474471577009
N        13.51566224242106    4.65087247385148    0.84642449843489
N        12.81811150701491    3.75946412421603    0.79104800862004
N        16.05804393281660    7.52500524120807    0.75996365697034
C        15.92806856976517    8.98402838441909    0.59380160018257
H        16.48683890891790    9.30095964364937   -0.29357079109743
H        16.36536047692023    9.48042543747518    1.46281758798020
C        14.47158552446557    9.40345454574032    0.44121308799191
H        13.99898935768313    8.81605934818010   -0.34955249169670
H        14.44224957131934   10.45107032383879    0.14341911337714
C        13.69127745623909    9.25371439896236    1.74145010390437
H        14.21044491924451    9.77834446955480    2.54794342583353
H        12.70395637640012    9.71580929944314    1.62507654565995
N        13.51842065429429    7.84168841878498    2.11175537807220
C        12.70914293425242    7.70512320015209    3.33249464997857
H        11.70439937970199    8.11697058698562    3.18780476238360
H        13.19357121544295    8.26675753472485    4.13728393388055
C        12.63712466542077    6.22665446753150    3.68598155079831
H        12.14055761155586    6.08433776293082    4.65201784438303
H        12.06707162324293    5.68025227172523    2.92805197205178
N        14.00960416471634    5.69832108258764    3.71288221081727
C        14.01937415219437    4.25226320209331    3.97584899429634
H        13.47791276802265    3.73619654572279    3.17853099859843
H        13.49195926355738    4.05669257472819    4.91684509737428
C        15.43881312349844    3.70700551298095    4.07417848682339
H        16.00570079999141    4.26967361488907    4.81965087992782
H        15.38473538134174    2.67082364839469    4.40655395221517
C        16.16510248664372    3.74933594523115    2.73583761345042
H        17.08809346985970    3.16405300665996    2.81065669102163
H        15.54042922842375    3.29720087327868    1.96246550206272
N        16.49116098638157    5.13104662930942    2.33910692675855
H        15.73796691829729    7.08321275469970   -0.10623929218672
H        17.05563982452028    7.32657644923439    0.84328635619618
H        12.98437341501825    7.41323487840434    1.34703612383788
H        14.48492795510793    6.13449424565629    4.51128786274912
H        17.15246279940856    5.50458125259380    3.02546386014334
H        16.98804321477106    5.07180809272506    1.44969391183080

