91
CSD_code = BEGBAT | q = 0 | S = 0 | Stoichiometry = C35H50Cl2N2RuS | MND = 9
Ru        1.45789934407425    4.17027909274993   12.56251960019275
S        -0.00966101711088    3.46122892416268   10.75410592746772
Cl        3.03525060657442    2.66647817892128   11.68370401544095
Cl        0.77788254390947    2.45592119982822   14.04547882258304
N        -0.77229166965272    1.29606488464506    9.49118763014696
H        -0.81418944579577    0.28718632863454    9.40310551418024
N         0.27953207395914    0.92947845933775   11.49801140079462
H         0.67673864666509    1.32067506254444   12.36775287916068
C         2.55576531721510    6.07094903698651   11.92438426402547
C         3.09330886348899    5.62097032554157   13.16203654140944
H         4.16599666793805    5.47791353049355   13.25222603542769
C         2.27337860668393    5.42203610765410   14.28023078863373
H         2.71050442771054    5.13045204911303   15.23029802461960
C         0.87235350304527    5.67606864566173   14.20897494603041
C         0.33337126113026    6.10647810536256   12.98936038944850
H        -0.72042166807151    6.35258859384869   12.92088262487354
C         1.16684694441386    6.28107207936303   11.85400439584408
H         0.72408505467066    6.65515589481065   10.93744478952591
C         3.46252881495270    6.38629019370356   10.75945174011343
H         4.48247784695877    6.09477520629737   11.03509911827786
C         3.44892927386310    7.89301886802742   10.48269830080884
H         2.46016156843492    8.21955277879850   10.16756230175980
H         4.15594468561219    8.12971062303423    9.69135054076108
H         3.72943129325569    8.45148384998901   11.37431965272472
C         3.06618605952605    5.58724806528629    9.51776213104302
H         3.08076577884269    4.52441323973205    9.75115650857832
H         3.77103260310257    5.77518468916044    8.71153833792355
H         2.06846029900021    5.85318601965987    9.17556858055468
C         0.02323405957647    5.51894937003806   15.43268318593357
H        -0.98967692056152    5.87270841857540   15.25328995781189
H         0.45531844037742    6.07176834179855   16.26666942752568
H        -0.02796333896234    4.46655291197285   15.71884494018699
C        -0.15562950548060    1.77487370874454   10.58145687114885
C         0.05708346742535   -0.47629629709244   11.44188166318869
C         1.09316121699622   -1.30855045595277   11.01047977658234
C         0.86197504148294   -2.67777823013878   10.98181962100556
H         1.64555949926377   -3.34563848304891   10.66158271924871
C        -0.35764249972874   -3.19750838890516   11.37142572769727
H        -0.51999967403117   -4.26507216438032   11.34644638241528
C        -1.36558828751786   -2.36001678540865   11.81126370558211
H        -2.30279157350283   -2.78406939444476   12.13476136411407
C        -1.17938938981958   -0.98477397990184   11.85289565758555
C         2.44191367057956   -0.72931242082943   10.66663108319965
H         2.33106889381845    0.33400430526212   10.43990672214756
C         3.34032810971555   -0.83224469782356   11.90255674982015
H         2.90170062290514   -0.28191514214369   12.73036749158744
H         4.31080897865957   -0.39525705527080   11.68616103356790
H         3.47220007869497   -1.87094368224858   12.19960586207501
C         3.09557450993625   -1.41198524721878    9.46527066976731
H         3.43265299354746   -2.41576300672850    9.71276551464856
H         3.96294987822717   -0.83633771267821    9.15230212021488
H         2.40310636329787   -1.47671675129736    8.62772730996744
C        -2.24758871460266   -0.06944207924225   12.40260633432178
H        -2.05277546345643    0.95259875521001   12.06541161911798
C        -2.15401384205104   -0.06858731839643   13.93159178936434
H        -2.94351693037662    0.54947998037304   14.35237657905919
H        -1.19588010563538    0.33699010509251   14.24751685286309
H        -2.25514366971124   -1.07891339829136   14.32173811065234
C        -3.65237487194955   -0.45636749147709   11.93816109410850
H        -3.68182569554913   -0.58435217729846   10.85768940558302
H        -4.35624134743117    0.32674149039507   12.21062474047857
H        -3.98399596583529   -1.37935195454317   12.40637775592529
C        -1.08398699527453    2.08956349567841    8.34851931992490
C        -0.16653685228495    2.14041900155487    7.29480657217830
C        -0.46245998809745    2.95376288674251    6.21006934287228
H         0.23510591465023    3.03109392459356    5.39156747841551
C        -1.64116715673265    3.67450629843357    6.16656523182163
H        -1.85286443050873    4.30697579287721    5.31683606410886
C        -2.55136533075080    3.58309002629823    7.20079018098519
H        -3.47463822524937    4.13912288819182    7.14712987446771
C        -2.29005824761407    2.78920213664148    8.30993647494064
C         1.12292055102297    1.35543768746258    7.35768877122951
H         0.98931303121330    0.51745964016080    8.04965161716511
C         2.24108466598380    2.24477789778962    7.90682910264482
H         3.17825643220081    1.69510550954721    7.93450637874812
H         2.01260950279988    2.57296950164532    8.91729037890648
H         2.36815973698001    3.12412753510863    7.27978381487357
C         1.52014183461135    0.77058068745945    6.00130967308029
H         0.68203181063998    0.24665141649956    5.54579288780920
H         2.33759494784557    0.06544187496444    6.13455739865278
H         1.85876906267377    1.54579703006250    5.31932006796940
C        -3.30130564648725    2.67900364372265    9.42515153474484
H        -2.90503138026329    2.00704552073515   10.19003839715040
C        -3.54481761676767    4.03967785470866   10.07840062662770
H        -2.60468035448349    4.44455758159362   10.44440630147991
H        -4.22933094361473    3.93295545282602   10.91694207975845
H        -3.97495974608847    4.74291058034754    9.36991756656456
C        -4.60873390723895    2.07892870248640    8.90229013278830
H        -5.07609052524341    2.73597990636995    8.17345309626084
H        -5.30513870423458    1.92896713479729    9.72407981785537
H        -4.42348775233439    1.11795528459371    8.42666417507974

