52
CSD_code = BEGDOI | q = 0 | S = 0 | Stoichiometry = C19H23N4O5V | MND = 6
V        10.89712368294287    4.97604655055887    1.86902994498288
N        11.60393967316832    6.22078197043393    3.21740967448922
O         9.38350996804199    4.70085120613945    3.15647223455981
N         8.90048135193054    3.26703302587780    1.50983879628748
O        14.12425004415319    9.23295317504243    2.42616758337247
H        14.44789169462665    8.88123518616904    1.58926079220567
C        13.01364092293169   10.06503832065055    2.16352038687765
H        13.32994090188999   10.96503353438277    1.61824773404966
H        12.64593111012689   10.37958168650540    3.14651922462018
C         8.56091782913701    3.89522281644035    2.62777469655113
O         9.90903332787890    6.36335136372811    1.24396697801732
N        12.00824741720715    3.51399811013954    3.17944010204784
C        11.91604308857016    9.38074808881900    1.38709373758314
O        10.06531217575328    3.71023780888211    1.10356409500983
C         6.87634571254432    4.25778846859723    4.40466565132252
H         7.54112371182972    4.99838397097975    4.82640324118015
O        12.10832781547010    4.99635262728343    0.94342015688056
C        11.38815043145746    9.96684991097577    0.25753884294400
H        11.72498801446713   10.93892307068901   -0.07719995067944
N        10.45164111493653    9.40173219681781   -0.50529954089764
C         5.65618880725714    3.98561366957385    4.99381108502017
H         5.35958540982877    4.51217215483154    5.88958593795804
C         4.81298391911376    3.03987231755490    4.43396609882910
H         3.85897088853392    2.82765354538179    4.89429337668996
C         9.97881306289530    8.22497054172009   -0.19172609546688
C        10.43176284265092    7.49564035351167    0.95865223524873
C         5.19203041722855    2.36810694777422    3.28108600622975
H         4.53061897967827    1.63322429503903    2.84586768297009
C        11.43630243821447    8.10280637337721    1.76018783951495
C         6.40983082598235    2.63645976752065    2.68679783127992
H         6.72269544735991    2.12846555162891    1.78871526711348
C        11.88482750619871    7.43687575224872    2.94593135953106
H        12.48017072715489    8.02146379213682    3.65436390454798
C         7.26287058929868    3.58511032449536    3.24761908732228
C        12.09389506094035    5.61624651464843    4.41869374874376
H        11.23590629188048    5.33212866569617    5.03898225597303
H        12.74284269551353    6.29716672132953    4.99219834566712
C        12.87084959006157    4.36609668830243    3.99294161799917
H        13.71317066330889    4.69150232235793    3.37354774264304
H        13.25363423395514    3.83003258881058    4.87486724642015
C         8.96628972399607    7.57924975565720   -1.07770635590586
H         9.31600627066239    6.58332939101501   -1.35524222529544
H         8.80625081502945    8.18620584565840   -1.96325466438793
H         8.02658353880003    7.45709691319484   -0.53867683100067
C        11.18445970937365    2.66086168743269    4.03123420194921
H        10.51624294845165    2.06205252011953    3.41110715779349
H        10.57519504392243    3.25855733201456    4.70747556320504
H        11.81512939663572    1.98349792096628    4.62549957399323
C        12.80540620220235    2.64705729410509    2.31219102324528
H        13.45340873542687    1.98881119803647    2.90782791630045
H        13.40643748374815    3.26029904533720    1.64229621237159
H        12.13509974563133    2.04512911940767    1.69833147209130

