82
CSD_code = BEGFOL | q = 0 | S = 0 | Stoichiometry = C34H40Cl2CuN4P | MND = 3
Cu        8.73869486859590    1.29528709382132   13.24112767187146
C         7.76950605751708    1.98614958186399   18.09723560604736
C         6.96990865097310    1.22527586975973   18.93717255759990
H         5.90533855468252    1.14566315273470   18.79696070467750
C         7.58396150160660    0.53774296739627   19.96565961755763
H         6.98446327982050   -0.06576500338468   20.62983596620429
C         8.95972137258159    0.60045902578826   20.15585872752637
H         9.40789614334622    0.04704577255417   20.96685418013711
C         9.76764044319778    1.34572445734579   19.31937940223712
H        10.83201008550097    1.36474655865770   19.47919280236822
C         9.16416288949792    2.03753886499116   18.27935315476303
C        11.08068139783743    2.97128315839622   16.93247526337592
H        11.10694729214789    3.58865039177190   16.03005548923782
C        11.88185121393812    3.67430250684709   18.02736646729743
H        11.41994963277812    4.61611409272117   18.31012803147217
H        12.88082888766201    3.88386685751170   17.65427682297684
H        11.97200799494902    3.05738291802345   18.91598881422366
C        11.66645624793290    1.60220056659643   16.59155637734878
H        11.83055240628575    1.00254924240061   17.48154894236782
H        12.61598049762270    1.73070187571357   16.07881679435439
H        10.98239918135334    1.06202435841508   15.94162838121762
C         6.16198893052428    3.08663924200807   16.49068496481334
H         6.32264467351159    3.81504639738824   15.68521766553756
C         5.30614449839384    3.76295877952805   17.56139477150647
H         5.07337225309108    3.09086309103856   18.38078065321828
H         4.37293790242115    4.09421625778715   17.11373693448760
H         5.82306313304997    4.63202255647708   17.96308865197372
C         5.50446220498409    1.84847209491428   15.89108681183498
H         6.20565809924263    1.35675723975439   15.22015695712701
H         4.61883587393075    2.13437355963460   15.33027316084400
H         5.21998867285801    1.13719866948636   16.66040107697778
C         8.64178529488921    3.25841512186714   16.50412922739072
C         8.75603763817911    4.02476149057975   15.31508681738393
C         9.57286116629209    5.18037605842279   15.11368651096734
C        10.13291404439689    6.00692759272995   16.09004538331805
H        10.01140125703149    5.75854010163822   17.13441805130418
C        10.78879756777624    7.16004750467405   15.71995647440049
H        11.22189775337655    7.79813342824738   16.47635051850581
C        10.86267275863963    7.53441377078238   14.37889706729533
H        11.35252483040685    8.45867717474805   14.10936770153247
C        10.28038782187352    6.75761487715781   13.40201146675496
H        10.27221140810478    7.08804663889314   12.37350205474473
C         9.64745552954200    5.56201921136094   13.74822225637731
C         8.88766013603328    4.70109347308761   12.89692981847987
C         8.91371160067895    4.66693649477531   11.47833200797599
C        11.39018070113802    4.56971580953181   11.20771942926978
H        11.30952857902851    4.62322344904131   12.29718968843657
C        11.97441787391040    3.20734704843658   10.83812365293762
H        11.24200666486158    2.42848319805892   11.03542943051812
H        12.86255796439575    3.01849651290859   11.43518148232401
H        12.24498232497263    3.15766972858388    9.78794129150810
C        12.27910747609195    5.71603195898543   10.72739884480691
H        12.47485899447926    5.65107315840393    9.66164959862070
H        13.22934900312088    5.66949296556592   11.25263832394352
H        11.82373103644624    6.68056493567154   10.93337949502340
C         9.64384282869738    4.53284107553093    9.38949845245239
C        10.36711070430691    4.46551630641885    8.20767204626680
H        11.44118672443304    4.53416392728897    8.18817767704177
C         9.66766322987575    4.28778722304407    7.02998062071692
H        10.20977841356032    4.22364567543285    6.09896146225450
C         8.28195066947422    4.17591732827872    7.02162964654249
H         7.76855975522652    4.02349040141033    6.08465784110069
C         7.54941883020440    4.24649130155211    8.19036804174121
H         6.47864394843115    4.13740933388389    8.16142725715989
C         8.23981919244418    4.43562518413819    9.37836607766449
C         6.45051563819391    4.58487323645616   11.15397317471299
H         6.50997070010505    4.78686518714065   12.23144699451203
C         5.77343727181871    3.23294318125410   10.95747497305074
H         5.59684984674785    3.02627274543437    9.90634335812063
H         4.82394975885142    3.21388024618378   11.48542578171598
H         6.41456920537982    2.44744388491869   11.35195377612054
C         5.68411872705370    5.73949616302920   10.50919251772270
H         6.21715932369314    6.67602460690564   10.65966891571391
H         4.70608266558629    5.82145358203290   10.97595878577873
H         5.54335760767088    5.58990525788040    9.44377422436342
Cl        8.73435262594574    0.39867472006265   15.15144762033450
Cl        8.94862609408157    1.51932553656231   11.15332227068789
N         9.67272613479367    2.84825722085801   17.28619069098574
N         7.48139038943462    2.77409068529425   17.00566505887297
N        10.02850186005506    4.69270557176668   10.70428803499198
N         7.82275591101963    4.54902663362192   10.68551108422786
P         7.97746767536602    3.50707988146886   13.82054359816904

