49
CSD_code = BEGLUU | q = 0 | S = 0 | Stoichiometry = C24H20N4Ni | MND = 4
Ni       15.06150328274012    2.23124969434381   16.65683283638970
N        16.86574170135562    1.69340764932898   17.02937156489897
N        14.71457471126140    2.37152457060025   18.53911623111123
N        13.25426884108670    2.75956608017383   16.28433783250379
N        15.41164875742788    2.10098459857469   14.77430924980719
C        17.71396787600647    1.03402678953858   16.18393880848497
C        18.95819440056177    0.77813687495785   16.84650165925223
C        18.87622425812468    1.34647267053760   18.07180376560455
C        17.55387054726739    1.88371667284014   18.19491792495675
C        17.02202266796611    2.38294922069331   19.38172326966116
C        15.64263537166691    2.50215461173945   19.53443623708006
C        14.98347223742611    2.61355770978483   20.80158890034452
C        13.65694231828566    2.48318208887880   20.56847380355502
C        13.49156796014621    2.37046150913023   19.14985247831588
C        12.25874647107311    2.40876619705101   18.50244615179706
C        12.19130763670386    2.70034528650003   17.14202777958578
C        11.00452532065450    3.14844764254173   16.47628664778451
C        11.37321981282695    3.53951125055138   15.23443157740048
C        12.77236944187403    3.25939453515768   15.10693723817665
C        13.48028615983498    3.34926032266222   13.91050710455865
C        14.69852565552705    2.68930481082412   13.76713449143071
C        15.30082214473248    2.38449619558196   12.50342889856457
C        16.34071361395333    1.55523530099310   12.75239364084968
C        16.42873788551378    1.41179815374881   14.17511649527201
C        17.48564556990887    0.78608585272806   14.83241755823494
C        17.92764738162702    2.66194454244124   20.54515348577152
C        10.99367447150613    2.27276912826660   19.29797880297886
C        12.86507412239393    4.04296300958680   12.73072192755234
C        18.46086841418591   -0.04672178968983   14.05333246229920
H        19.80210111908270    0.27361470612966   16.41911211631028
H        19.62889859160840    1.35670498206546   18.83521858055157
H        15.46840041175381    2.72778371283674   21.75089277209602
H        12.86490872367593    2.50859700477317   21.29057621526515
H        10.02627233285377    3.20358551492956   16.91145483872912
H        10.74224326350279    3.93645492990723   14.46392374565555
H        14.95042529972720    2.71828058326254   11.54677729833179
H        17.01163854009241    1.12168736449894   12.03734662693602
H        18.05766776629209    1.76883705599242   21.15758955591326
H        18.90529230574877    2.98461846997132   20.19838968388351
H        17.51339738228263    3.44805648777171   21.17022972702564
H        10.65528448486877    3.24588439640403   19.65616298565016
H        10.20541169369130    1.83979100091642   18.68833436915103
H        11.15060282263665    1.62710512280710   20.15733496544673
H        13.63654115026510    4.45568605168868   12.08664751654251
H        12.26310164407238    3.34815894517245   12.14361858488383
H        12.22544102527770    4.85755780165060   13.05832898632455
H        18.88592631159578   -0.82358891710150   14.68293778756875
H        17.96775781934983   -0.52479702589480   13.21168424441665
H        19.27588827798374    0.56869063216229   13.67012057508854

