33
CSD_code = BEGNEG | q = 0 | S = 0 | Stoichiometry = C14H12N4NiO2 | MND = 4
Ni        1.81070040842489    0.61892253123808   -0.00012422027315
N         1.44018315186657   -0.52990792869088   -1.54133609610655
N         1.37770090800613    1.98670604769016   -1.11227901054614
C         0.93363582134128    0.20866506277667   -2.54970292305165
C         0.55592176225952   -0.33907711896129   -3.76636823437649
C         0.72091750996535   -1.69593041568676   -3.97627094530693
C         1.28789872197287   -2.44887548424257   -2.95917879078049
C         1.62940446035086   -1.82893555826526   -1.76830878421868
C         0.85653237213564    1.69537971539016   -2.30489288315689
C         1.42252725993872    3.37483127355888   -0.66001634150102
O         0.40683152920853    2.48289246180534   -3.12734029864080
H         0.14996203860978    0.32463207666377   -4.51393327798408
H         0.43240226860809   -2.15475568436189   -4.90973603184804
H         1.46635196131495   -3.50564612660750   -3.08143349970584
H         2.09151275613482   -2.40940300697462   -0.98083492515144
H         1.90270948794095    3.99142739134959   -1.42841331117322
H         0.39741369208597    3.74183765110650   -0.52547296342444
N         2.18025572330635   -0.52991003184950    1.54134499518664
N         2.24282895197237    1.98672252557354    1.11228560147949
C         2.19804999695882    3.37481381630890    0.65998718286197
C         2.68667381946293    0.20868383347163    2.54976413860576
C         1.99107826584203   -1.82895835791234    1.76830680711387
C         2.76397996097318    1.69538875015929    2.30489612833386
H         1.71791716859133    3.99145970607266    1.42832081482482
H         3.22318181390054    3.74167240950535    0.52550771131319
C         3.06424097319129   -0.33903318414666    3.76648628153686
C         2.33270512725203   -2.44891195087295    2.95912980105304
H         1.52940683448298   -2.40954084470980    0.98065684230134
O         3.21361716504188    2.48288686345847    3.12736687841265
C         2.89950467845877   -1.69592315947166    3.97629236217397
H         3.47006311664755    0.32470861143643    4.51409593260375
H         2.15437682130901   -3.50571488821663    3.08134646499583
H         3.18781347244401   -2.15470698659435    4.90985459444909

