191
CSD_code = BEGNAD | q = 0 | S = 0 | Stoichiometry = C60H121N4OSi4Y | MND = 5
Y         2.87712355577672    1.85703791942033   -4.11949467176323
O         2.50361427586324    0.49148782276545   -6.37655620125858
C         1.85058983926236    1.13855825346093   -7.48138508100611
H         2.36288061691317    2.09164915109033   -7.64081125633805
H         0.80605760100062    1.34350959158273   -7.22234776069499
C         1.95621610489357    0.19961388630210   -8.69312547742480
H         0.98454328318652   -0.23981634610117   -8.91721538760121
H         2.30661778895369    0.72120252069738   -9.58040208280593
C         2.93424906802660   -0.87959715037950   -8.22612108432309
H         3.96133113890766   -0.58647792647523   -8.44037060342371
H         2.74090903700315   -1.84982168762559   -8.67694405292672
C         2.69184584150298   -0.87703019266791   -6.72071747173310
H         1.78669345129547   -1.45565821423506   -6.48220336498280
H         3.53095263427227   -1.25723338793892   -6.13537894443831
N         2.77302378882186    2.80544898646251   -1.87183967035464
H         1.81310791299706    3.06586824637904   -1.63978304082747
C         3.53789603599978    2.77438614153311   -0.85380150595242
C         3.04775392325458    3.03194283246600    0.56534613855313
C         1.56672103830650    3.42953768430526    0.58904685421882
H         0.93515318349838    2.63112235072911    0.20181780999373
H         1.39555701742159    4.33947247431991    0.01710218722943
H         1.26225620765555    3.61870710701265    1.61604257525460
C         3.21250062859825    1.72943604176424    1.36221976025549
H         4.25561364863561    1.43806205125562    1.44015890984178
H         2.66996634897210    0.92267266327347    0.87456125685857
H         2.81778527329292    1.86047715477381    2.36736037285106
C         3.86284772906454    4.15706595313261    1.21626535293837
H         4.90431990856968    3.87932057888428    1.34178973060595
H         3.45440329425866    4.37972364251881    2.19955272112524
H         3.82061373581087    5.05812212342504    0.60969071317718
C         5.00479429388782    2.51710631494295   -1.06423544789245
H         5.50717897476387    2.38304374723613   -0.10408235576709
C         5.55271144881860    3.73744070774348   -1.75898156150698
H         5.17852436001477    3.87920766297086   -2.76549467740669
C         6.42055772099414    4.59581924513946   -1.24395833794438
H         6.77709932140403    4.42464844520547   -0.23433207644098
Si        7.07904056403688    6.11667096374189   -2.16056299109045
C         8.97684964594351    5.84990142370265   -2.44007901752540
C         9.72687095827933    5.87087796963081   -1.10686462680960
H         9.61956654926096    6.83577668801690   -0.61768608718484
H        10.78975276880863    5.68842487152695   -1.26540958471251
H         9.34926880049304    5.10170919810190   -0.43702877110771
C         9.21484586446386    4.49536736182976   -3.10944114041905
H         8.69874275912936    4.43966221748041   -4.06486958934332
H         8.85031622458138    3.68970466813257   -2.47541662769931
H        10.27806485718343    4.33470215762669   -3.28710419903111
C         9.54943751192494    6.94785717118538   -3.33710474361855
H         9.39328875136949    7.92972237423762   -2.89611007133912
H         9.07761899027138    6.93252913478254   -4.31631947630412
H        10.62129654627855    6.80623552169559   -3.47590432476636
C         6.77900408986660    7.63317864845136   -1.03958823488894
H         7.20541060987553    7.49644101900157   -0.05106776463587
H         5.71550225735432    7.80889590782106   -0.91455203796623
H         7.21042079645875    8.53386889546850   -1.46418722162334
C         6.16921922952936    6.34677866737031   -3.81313075457070
H         6.25714878224350    5.47199100416842   -4.44899089507858
H         6.55412427271101    7.19828508461516   -4.36554246166507
H         5.10919008122587    6.51524261350347   -3.65382214984511
N         2.99363198552350   -0.12283845722019   -3.23790856900372
H         2.33013334680304   -0.81871207516683   -3.57585426813070
C         3.50003373433485   -0.55316538130374   -2.04110734674152
C         2.87306015799364   -1.83354761463377   -1.46021687693413
C         3.43101592821118   -2.23157875760155   -0.09062770272379
H         4.49295969481642   -2.45461130458532   -0.14247056902058
H         2.91941571990795   -3.12695134745653    0.25927848138777
H         3.27241713784534   -1.44539524949042    0.64304953390615
C         1.35866891599969   -1.63488096562661   -1.29337447351829
H         0.87028936031779   -1.42603159702868   -2.24142169167767
H         1.16227531252259   -0.80324460670132   -0.61871230519822
H         0.90739225347355   -2.53223500193965   -0.87327184870099
C         3.13711038801638   -2.99767908260600   -2.42837204793676
H         4.20745212172955   -3.13373488432987   -2.56550596183103
H         2.69249610765357   -2.81998622463104   -3.40557522468878
H         2.71634338794149   -3.91959316916423   -2.03094337234395
C         4.53014392096957    0.06017766023515   -1.41273885754306
H         4.88964080773628   -0.30769088390004   -0.46787711541164
C         5.27219494055363    1.25221254117081   -1.93205563006466
H         4.93336539932189    1.47466448263824   -2.95422745819277
C         6.78000248488978    0.99472716084382   -1.98004389702451
H         7.26776927203818    1.88901493555576   -2.37145928132606
H         7.14571638996195    0.86202742486241   -0.95943942546123
Si        7.27130627589831   -0.54727314183179   -3.00697803126233
C         9.09887035703757   -0.31082936142195   -3.61136438041453
C         9.19874120818225    0.80451111104672   -4.65307371378854
H         8.81711898958209    1.74294422127114   -4.25908436171213
H         8.63876301595118    0.54782016967202   -5.54914172460131
H        10.23743554272486    0.96120210285198   -4.94359451275410
C        10.00438001432638    0.04940855659892   -2.43260634483823
H         9.69824533008525    0.98984063490172   -1.98165018520392
H        11.03730660717097    0.15396800802301   -2.76409492042895
H         9.97255764825322   -0.72419697855650   -1.66947655679679
C         9.61641149685907   -1.60372061449383   -4.24271825731826
H         8.98530983090338   -1.90854576253797   -5.07403508537949
H         9.63523575901808   -2.40910989255849   -3.51360605755278
H        10.62986859720593   -1.46526343676398   -4.61904799901365
C         6.13605783686542   -0.84415387145469   -4.51283968913941
H         6.40446310396946   -0.21819494230723   -5.35809791432846
H         5.09905097664063   -0.63893961134888   -4.25444236022622
H         6.19818102581276   -1.87701468592119   -4.84350823601156
C         7.20277375007716   -2.10348581552678   -1.90058952065557
H         7.85591045257783   -2.01329403736851   -1.03816387957896
H         7.49707148206881   -2.99553441131732   -2.44455670343014
H         6.19520070957716   -2.25987348531373   -1.53357707899036
N         0.94277356581955    2.66104378794482   -4.65772027699682
H         1.18667910612067    3.46051726788753   -5.25148333707535
C        -0.32869891084712    2.32831212983257   -4.96525274503048
C        -0.98908804163693    1.23711506944622   -4.11226105361345
C        -0.60986634435594   -0.12294949360422   -4.71449728261361
H         0.47550383927297   -0.21763588684463   -4.75278879880352
H        -1.00235692515849   -0.20748942297069   -5.72650348375502
H        -1.02060248233926   -0.93651791960792   -4.11731023924057
C        -0.49274047277110    1.31073334532839   -2.66227257446396
H         0.58811549286865    1.16211771607704   -2.61170329590862
H        -0.97670974440317    0.53923299727197   -2.06439348720110
H        -0.74284776287806    2.28137363009775   -2.23780231895918
C        -2.51799386168539    1.35532337244311   -4.07593710550417
H        -2.96448005992763    1.10616387250971   -5.03431314569451
H        -2.81692989832557    2.36407878391463   -3.80268879747615
H        -2.91961238214314    0.66391067645021   -3.33665995102354
C        -1.03163426919720    2.90467145995559   -6.00017822154583
H        -2.05563325770911    2.61065800979602   -6.16648981626784
C        -0.53347759956128    3.86949009908585   -6.91575933206138
H         0.48949484823217    4.20760177611495   -6.79698594820767
C        -1.24427115184611    4.39056991825665   -7.94137999679376
H        -2.27131202162732    4.05781952651418   -8.04843989325491
Si       -0.57701082147773    5.59690664203059   -9.20378534237281
C         0.05478394264742    4.61429461920618  -10.75452702899611
C         1.20363962787782    3.69442857354160  -10.34090295695015
H         0.88081211257167    3.02169005679992   -9.54912202421684
H         2.04751971656424    4.27413035554492   -9.97403981556682
H         1.54397970644645    3.09618803749267  -11.18770605032274
C         0.54513931604440    5.55070090213540  -11.85830314016161
H        -0.25740930761423    6.20221901953636  -12.19584425021703
H         0.89969419412484    4.97891836835104  -12.71725673154198
H         1.36541276765138    6.17122280889319  -11.50470012932403
C        -1.07613355074964    3.75055456860239  -11.31219470254472
H        -1.90861422874978    4.36960718143166  -11.63766709013081
H        -1.43870301850434    3.06180637356765  -10.55249596926769
H        -0.73278857739144    3.16739385994934  -12.16786602728508
C         0.86648436931051    6.63064460231968   -8.50522904227278
H         1.27558315727413    7.31374263537998   -9.24337902974293
H         1.67365593281939    5.99782369769398   -8.15269177311824
H         0.52427404424536    7.22355835688305   -7.66351435079323
C        -1.96159605816436    6.79802745204492   -9.74081997241044
H        -1.61658548066403    7.51127564499185  -10.48256616570824
H        -2.32484747060811    7.36226602132228   -8.88814772478906
H        -2.80698239425755    6.26457650808429  -10.16247749259907
N         4.60986063533657    2.51130800180428   -5.29734622157182
H         5.35130106867302    1.83347442732166   -5.47426336365056
C         4.64803784898429    3.48310701605743   -6.23038449470132
C         5.65865434500422    3.32896088689551   -7.37875834738787
C         5.47783352515785    1.97364295991515   -8.07831809004351
H         5.46856490208172    1.14652862814894   -7.37109804960246
H         6.29044733758652    1.80663719549677   -8.78413077714076
H         4.54000987736765    1.96427360072623   -8.62947587548573
C         7.06821123602352    3.41433636442924   -6.77107173536278
H         7.21865000736148    2.66534111770547   -5.99669766388908
H         7.22239569812648    4.39654559675552   -6.32840088210208
H         7.82307000463885    3.26434939811892   -7.54108132077309
C         5.54265385676422    4.41547200710029   -8.45138374671775
H         4.55235202211508    4.41893399713028   -8.90140490647001
H         6.26982995663353    4.22249222799067   -9.23883754440575
H         5.74800054520913    5.39991040860012   -8.03925132187660
C         3.86840539207317    4.61450905131823   -6.12742980782754
H         3.85146615659938    5.32467951517828   -6.93769374276697
C         3.12604168513318    4.97986398077131   -4.97625703521606
H         3.25427619621587    4.35489010494230   -4.08547116154979
C         2.35102623375992    6.08331185929675   -4.85943216180768
H         2.24453025364874    6.70146457300800   -5.74189660027140
Si        1.47357264696765    6.56353788688936   -3.28485971721639
C         0.79393996130193    8.36223822514641   -3.44182619880614
C        -0.22839110816056    8.44077628098691   -4.57461260671605
H        -1.07665161367379    7.78963688579532   -4.37878352543616
H         0.21599119571247    8.13766164718737   -5.51896647088913
H        -0.60147534534209    9.45948246625403   -4.68634481569436
C         0.11470494679402    8.79884483030065   -2.14415773599214
H         0.81908166554794    8.78656886903065   -1.31536297266122
H        -0.71460009041012    8.13839385993539   -1.90137306947372
H        -0.27732948164809    9.81214840788357   -2.23877290788296
C         1.93381504788383    9.33408299138133   -3.74649832913177
H         2.66298889392418    9.34080972260675   -2.93945346285194
H         1.55210370280303   10.34862748655204   -3.86594440732789
H         2.44562913553972    9.05315787384130   -4.66350096409036
C         2.68889844279379    6.48614460205014   -1.79980640896912
H         2.18086178465211    6.61977612733865   -0.84892046593056
H         3.45349961970890    7.25272809630634   -1.87136773953902
H         3.19978862008234    5.52828567603789   -1.77788646794041
C         0.03970860611000    5.36380522218403   -2.87371183912524
H        -0.33177157008931    5.48369446754148   -1.85939509236446
H         0.37551702274106    4.33784256421939   -2.99842169868086
H        -0.79650023481446    5.50251357429787   -3.55165641540296

