57
CSD_code = BEGNAF | q = 0 | S = 0 | Stoichiometry = C32H16N8Pd | MND = 4
Pd        5.68359371665011    2.81527966205379   11.92397350915616
N         4.70409923995821    2.13263915288103   13.48981342750542
N         2.44805206477165    2.53291372648368   12.75862498385866
N         7.39079012653966    2.36786957519738   12.79691095199715
N         6.55995395129075    1.45489950037744   14.86114262372909
C         5.27818748902077    1.60700004198834   14.60956211527463
C         7.51903483803597    1.80437043818772   14.03208216182237
C         2.73990429133162    3.05417313060461   11.58713358927837
C         4.23017851404968    1.22054697094010   15.53627278619393
C         3.34702320641258    2.11562068909736   13.62292363758092
C         8.93031224507150    1.63457829632995   14.32555027908903
C        11.01481269729537    2.10772634982286   13.16946138218675
H        11.54338194087136    2.48491480322408   12.30872621471944
C         9.63066861459736    2.12388981168016   13.20690909392585
C         3.00984404793899    1.54321909599981   14.91338332583856
C         4.25774745412140    0.64884749021246   16.79724470628273
H         5.19710222093880    0.40449288671829   17.26670205911225
C         9.60487995463086    1.12230428374788   15.42099307776038
H         9.06064797518560    0.74937535344629   16.27377903301010
C         3.04504222885296    0.40858746755974   17.42092434227225
H         3.03165002733366   -0.03644957016625   18.40494740790073
C        10.98879721208072    1.10998516893720   15.37578223743354
H        11.54522647262534    0.71779206672629   16.21426803524538
C         1.80125112842071    1.30031010068141   15.54415918214490
H         0.87095035688884    1.55190619065299   15.06063849285304
C        11.68187422468274    1.59455020587403   14.26905198035008
H        12.76161626383191    1.56804931307739   14.27198656579845
C         1.83749035516464    0.72940120279280   16.80519645855282
H         0.91243645478670    0.52772183376016   17.32494933633502
N         6.66316562637325    3.49909354934802   10.35872262039804
N         8.91921691697737    3.09889764851315   11.08993895902115
N         3.97645441756484    3.26388781312342   11.05161537335272
N         4.80730262693135    4.17692389421201    8.98743075796383
C         6.08907161529360    4.02476666113982    9.23898971016452
C         3.84821896210151    3.82752369595986    9.81651719303900
C         8.62735093510710    2.57771324323955   12.26146347060512
C         7.13707565067755    4.41112038843036    8.31223288104392
C         8.02024382324469    3.51614236188971   10.22561865230039
C         2.43694308105843    3.99731688006024    9.52304750420150
C         0.35245357758914    3.52418975434023   10.67914846594116
H        -0.17611315097027    3.14699525835649   11.53988307149152
C         1.73658879897605    3.50799688210753   10.64168674868010
C         8.35741535765928    4.08845091842590    8.93511664403667
C         7.10950046402243    4.98273265057083    7.05122078080586
H         6.17014523649347    5.22706691804172    6.58175653536346
C         1.76237679476928    4.50962662395783    8.42761554554662
H         2.30661024727499    4.88256062253791    7.57483101813515
C         8.32220606529603    5.22294435357041    6.42751272986975
H         8.33559308070549    5.66793061842000    5.44346652315681
C         0.37846232038137    4.52200598575668    8.47285277689992
H        -0.17796771466744    4.91425976537553    7.63439312663504
C         9.56600768274775    4.33127499025921    8.30429536106140
H        10.49630905022330    4.07965683287417    8.78780347464251
C        -0.31460889845035    4.03742996678040    9.57958267929920
H        -1.39434853830465    4.06398445268818    9.57667468395855
C         9.52976260026677    4.90213194894443    7.04323431679925
H        10.45481405727725    5.10376008218731    6.52345539837911

