56
CSD_code = BEGQOU | q = 0 | S = 0 | Stoichiometry = C24H24Br2N2O2PRe | MND = 6
Re        6.73523748246776    1.75472717931452   35.29142960037279
Br        6.79975479300807    3.71173734391421   33.82540669985913
Br        7.98440639494184    2.98418988875463   37.09839858565354
O         8.11008451009129    1.02221043712339   34.74006613126888
P         5.46685650633328    0.55679807782740   33.47608294382085
C         6.57479051105102   -0.20088091353374   32.25502023348650
C         6.33019900883625   -1.46429372070868   31.72346374643291
H         5.46751069356462   -2.03229814508451   32.04444490440125
C         7.19528888079403   -1.99234989293168   30.78238329340448
H         7.00486509581499   -2.97386120840155   30.37333266478419
C         8.30098542735357   -1.26753471178153   30.36733883816518
H         8.97529547935796   -1.68770046157087   29.63611621645083
C         8.54242885108115   -0.00778250211027   30.89120190008477
H         9.40350418782834    0.55803261401068   30.57038347931500
C         7.68362395352536    0.52861335709864   31.83317868061946
H         7.87889272470546    1.50719024159872   32.24944698817658
C         4.28779494793225    1.52612259116581   32.49335889022523
C         3.57146223731247    2.54789022260878   33.11050842977912
H         3.74776727764637    2.77471089209216   34.15287364263361
C         2.65825929054053    3.28823676847753   32.38360032648392
H         2.11028845214227    4.08604984969527   32.86197611328923
C         2.45887689759794    3.01474558262373   31.04025034713368
H         1.75043344462999    3.59765455362695   30.47090691097331
C         3.17618165958031    2.00318481093355   30.42239322680471
H         3.02798284721803    1.79750773848725   29.37260033188767
C         4.09244306071614    1.25815944590187   31.14217833028495
H         4.65999795896975    0.47653330634850   30.65734960245794
C         4.50250396572245   -0.82818389357204   34.13624637508805
C         5.21052877198967   -1.84216714734400   34.78091250780700
H         6.29215632493872   -1.80267082726972   34.78437518013083
C         4.53486787866563   -2.87700671787235   35.39682514060508
H         5.08628368045975   -3.65952511855883   35.89628304948729
C         3.14795069009556   -2.90644770360642   35.37620676447359
H         2.61870289384447   -3.71175675577404   35.86285051978578
C         2.44097263688240   -1.90731341020102   34.72800108655227
H         1.36146871920728   -1.93535731653936   34.70550261353738
C         3.11250932129006   -0.86494247247308   34.11018295480450
H         2.56174125662310   -0.08551989026557   33.60049297414021
N         6.23635840465348    0.26957876735788   36.84317395647822
N         5.13130922883720    0.57951721818706   37.50425684902414
C         4.90143597801911   -0.30771180312407   38.48056547794759
H         4.05580662995243   -0.23043775130269   39.13221167924855
C         5.92343173479772   -1.23288654633010   38.43838035310969
H         6.06164926330945   -2.07945949423945   39.07780219710342
C         6.74503054911391   -0.81920617950990   37.39000631875558
H         7.66146502941194   -1.23621201748109   37.02284726967238
C         4.42058378093602    1.82233743911734   37.10533999268594
C         2.95789783006194    1.46299274725461   36.79601992122051
H         2.44179008813917    2.35443177580056   36.44789812573956
H         2.46056942963123    1.09287296538867   37.68787931791305
H         2.91407007026431    0.70224652569600   36.01790269818891
C         4.50289986393880    2.82158197791832   38.27140107682003
H         5.54361394947450    3.03721190069115   38.50772065374363
H         4.00650788649607    2.42090928724110   39.15067410002452
H         4.02092115563425    3.74932272391962   37.97331732296486
O         5.07576041272909    2.27620837124089   36.00953246456589

