56
CSD_code = BEGQIO | q = 0 | S = 0 | Stoichiometry = C24H24Cl2N2O2PRe | MND = 6
Re        6.60137989767241    1.57959375533868   34.87740679679813
Cl        6.56383673799508    3.32991952556194   33.42047138045896
Cl        7.58834328082508    2.88227903941510   36.56054607230607
O         8.01948473797027    0.85618529753056   34.42265759573322
P         5.34155973491415    0.40037505651807   33.07238270296935
C         6.44268997287390   -0.38090721827564   31.86231019093717
C         6.17161505310501   -1.62692454581516   31.30533460351015
H         5.28773692223549   -2.17404505046149   31.60373317628660
C         7.03906931473519   -2.16255491453461   30.36998177742384
H         6.83033925399510   -3.13084021274117   29.93893234127736
C         8.17105731632649   -1.46084375998109   29.98790576246579
H         8.84562847698374   -1.88557586661280   29.25936580293201
C         8.44072534888084   -0.21914926437711   30.54189093569515
H         9.32535972627676    0.32431400895242   30.24699451091955
C         7.58109676809226    0.32373401221169   31.47921454750989
H         7.78740718153337    1.28574967236276   31.93031235340683
C         4.19199827129749    1.39101489825761   32.07833959182758
C         3.43652249362321    2.37521065154451   32.71041479455933
H         3.57504223695072    2.55298937028507   33.76736565728820
C         2.54323959149602    3.13576738303297   31.97998321555963
H         1.96271961264990    3.90355483522981   32.46971362280253
C         2.40181127744278    2.92172918805105   30.61799699388065
H         1.70814045508147    3.52064433164262   30.04673100466344
C         3.15845494634374    1.94870724597741   29.98615192825608
H         3.05553184270481    1.78936458438137   28.92288161737912
C         4.05493662406051    1.18260140963376   30.70989703203535
H         4.65212973387295    0.43103217641266   30.21371621209748
C         4.34713025819613   -0.96261973355699   33.73511631301209
C         5.03311340206489   -1.94387792050468   34.45017087169436
H         6.11172148478746   -1.88173024525584   34.51349057850060
C         4.33919143389495   -2.96846689756331   35.06288836535340
H         4.87235907631428   -3.72560621933509   35.61816600030077
C         2.95569494918164   -3.02003711261109   34.96829025389138
H         2.41147358376520   -3.81783878313880   35.45110093394941
C         2.27127466441383   -2.05017485219903   34.25495380325292
H         1.19461336878818   -2.09325236358307   34.17978722659280
C         2.96145765657870   -1.01765124975780   33.64041322297490
H         2.42842010734743   -0.25672635436316   33.08706129548258
N         6.17450115913058    0.18733295014147   36.51370267452058
N         5.08239454453056    0.50673458816051   37.18972482528404
C         4.92506687021790   -0.30397955636561   38.24377496573347
H         4.10012663152228   -0.20890055730378   38.91944758591724
C         5.98256378320083   -1.18963711639791   38.23852930191872
H         6.17727784998081   -1.97380112637802   38.94019210773718
C         6.74689571547117   -0.83312240346552   37.12783925213500
H         7.66297006982933   -1.24558276900980   36.75551930633326
C         4.29447438143085    1.67188044026065   36.70844552585425
C         2.84007379765088    1.21400517186093   36.50464090820279
H         2.26717392891684    2.03920016984927   36.08974235290091
H         2.39618029070029    0.91654624445461   37.45014838202736
H         2.80556914157744    0.37754839032524   35.80877827930534
C         4.38931799522371    2.78127503105517   37.76857737356372
H         5.42943264268784    3.09446932064062   37.85739903529473
H         4.02495394992204    2.42811414741146   38.72908761559201
H         3.79685656531539    3.63220365806872   37.44343710946384
O         4.87366388736499    2.05216953901758   35.54234231222382

