47
CSD_code = BEGSUE | q = 0 | S = 0 | Stoichiometry = C18H22N3O3V | MND = 5
V         3.86021997410130    3.05812449720123    0.90544301694250
O         4.11414169913637    4.64227377724628    0.34971249172307
O         5.03244544677502    1.80659517665000    0.87601868960285
O         2.20059769542003    2.45097229192297    0.76079645426739
N         3.81705126541391    3.32114332682993    2.48838896169574
N         3.76454507173931    3.42684175029658    3.77349153889674
N         3.89154285287214    2.67275550368006   -1.27865178626104
C         4.42426690386863    4.98828596982484   -0.93688241837303
C         3.77833607046651    3.97667295743033   -1.90484680435837
C         5.45955909047819    1.16403717734606   -0.25340066229793
C         5.16963766041926    2.02497101611371   -1.49923915266656
C         1.66152976694135    2.24246305105302   -0.48391482688435
C         2.74327245549044    1.81164179150790   -1.49054365069552
C         3.56149247060691    4.69143947252798    4.35154539158788
C         3.90594537735082    5.82122680340415    3.60499291522227
C         3.69744041212234    7.08185497166013    4.12822668504131
C         3.14523441444558    7.23654226617863    5.39094046098957
C         2.78096987942587    6.11683664094852    6.12047970783106
C         2.97776582751111    4.84766469932623    5.60824886832002
C         3.89516689570793    2.24376244008259    4.53199985151599
C         3.41710591866484    1.05337477167381    3.98276320470272
C         3.56152453013929   -0.12954191740031    4.68142978260222
C         4.18040125347126   -0.14103934577282    5.92264151647589
C         4.67162667002851    1.03863830035622    6.45692399157743
C         4.54029071268463    2.23014810602712    5.76683869845032
H         5.52314507022593    4.99293852892435   -1.06666691115777
H         4.06251855819091    6.00804572048430   -1.16003842082849
H         2.71877093311819    4.22900233046978   -2.00625929343845
H         4.24597103529798    4.01136607245030   -2.90248126920051
H         4.94284070778400    0.18863420667211   -0.33506236457869
H         6.54262971612477    0.95338266168464   -0.18983216768445
H         5.94233018259030    2.79716755197703   -1.57110326104023
H         5.18745481151248    1.42033568966376   -2.42199926122688
H         1.16867638476741    3.17045066475478   -0.83479816228826
H         0.88168071968170    1.46123439146246   -0.42494139630878
H         3.02955341234949    0.78134398643529   -1.25947349426332
H         2.36933886146398    1.85067078094444   -2.52774780851489
H         4.32597032488570    5.67737489487640    2.61632722835280
H         3.96964229563790    7.95253928847829    3.54999152549927
H         2.98936852571524    8.22370755319625    5.79920086341122
H         2.32910412734879    6.23184143816554    7.09487542090083
H         2.66220718057036    3.98264103731844    6.17100184266839
H         2.93877179004137    1.09272928880730    3.01011027315481
H         3.18541770319740   -1.05029890719710    4.26049859858064
H         4.28711670524078   -1.06689743599403    6.46779325760117
H         5.17139760491147    1.03049570001959    7.41455042923600
H         4.94988303405887    3.14200906027957    6.17435144521482

