93
CSD_code = BEGTEO | q = 1 | S = 0 | Stoichiometry = C36H40AgN8O8(1+) | MND = 4
Ag       -5.44373464469611    7.77827059241983    6.76660696500488
O        -5.50865546100103   13.15594964966258    4.61961273887448
O        -4.36477317892417   13.34499980166312    2.80352678279843
O        -8.63009003320061   12.66999016455286    7.30379920939969
O       -10.66903419341122   12.39194738531135    6.66238596645760
O        -6.44750999859804   12.59518301175078   11.61657906749686
O        -5.29884163520802   12.69638212915001    9.79647037119126
O        -0.14143809173348   12.21828857567013    7.63771814063190
O        -2.17467478325025   12.63194752878124    7.05459175251495
N        -3.91143767469576    6.59773497742594    5.20879038361364
N        -6.97022636882970    6.60235490990916    5.07534593760529
N        -6.99293101612549    6.36454906343140    8.09748969195180
N        -3.93449965328669    6.30702054185151    8.22550043706812
N        -4.70855012618903   12.76342122076302    3.80009264776837
N        -9.49367262318466   12.12292091520940    6.65483782180801
N        -6.10827066499042   12.18425848125459   10.53698963035771
N        -1.32074000311359   11.97032788409673    7.60156114086243
C        -4.72311493846046    6.17388313438445    4.06115423929735
H        -4.19013411011871    5.41011975990101    3.47544623201931
H        -4.85859735628881    7.04896642401756    3.42337362534720
C        -6.09499679343250    5.61365345915673    4.43598189397439
H        -6.56247080203541    5.21858583095518    3.52259572070057
H        -5.96893207007689    4.77526426675364    5.11904279313067
C        -8.01891279810358    5.93427398179558    5.85770041941075
H        -8.47207812478798    5.11853520428602    5.27464543821531
H        -8.79593111657881    6.67367311625531    6.05072689409210
C        -7.55152779902749    5.35552081586973    7.19391552855407
H        -8.40947259896771    4.84951739301016    7.66067265463327
H        -6.79027356097452    4.59791126590978    7.01535785131971
C        -6.18803879534272    5.73723614905026    9.15301216535991
H        -6.73115755392301    4.88980046665695    9.59722859522643
H        -6.04245898743135    6.48603399340291    9.93338499863311
C        -4.82276442070412    5.23369478954844    8.68520615097698
H        -4.36114293703734    4.68075211414503    9.51591131093346
H        -4.95853849059480    4.52781133304871    7.86746947473876
C        -2.89374214735634    5.77058462656524    7.33828564820843
H        -2.45284385706627    4.85975768292640    7.77037106755907
H        -2.10624949485267    6.52128021282594    7.27582588941002
C        -3.36704034379953    5.43957311587423    5.92224465675403
H        -2.51513966780709    5.01163196562476    5.37351703275966
H        -4.13814457153725    4.67226450959080    5.96692778444147
C        -2.81652218739447    7.45053997539467    4.71514751986830
H        -2.36337220875566    7.01331264393387    3.81463212516478
H        -2.04584810970453    7.50538737861557    5.48606223956746
C        -3.29132932098654    8.84911489817512    4.44037626774600
C        -3.73072459269467    9.62416335378866    5.51396527231485
H        -3.64967584807821    9.22334675019352    6.52104912707938
C        -4.16554565711203   10.92190693574078    5.31643046290961
H        -4.46681181846312   11.55551579258801    6.13585147636297
C        -4.16739472515760   11.43672311971602    4.02658257141222
C        -3.71077366785523   10.69188133695443    2.94941966415748
H        -3.70666573600627   11.13359698823556    1.96445943079618
C        -3.27721401157701    9.39428454242140    3.16158681597502
H        -2.91714101097930    8.80995620527862    2.32822574826751
C        -7.62058949987967    7.42305655134480    4.03028971629426
H        -8.41545594564173    6.84506793551669    3.53800101010092
H        -6.86936046543923    7.67610003562794    3.28152448743332
C        -8.17356022041232    8.69745571640671    4.60183331617614
C        -7.31927909844971    9.78489698646077    4.77320810818862
H        -6.31161101580542    9.72409250708447    4.39007491782176
C        -7.75656845131287   10.94007323200402    5.39690052888808
H        -7.11349350672091   11.79928997773610    5.52282067520327
C        -9.06587764943717   10.99334534873979    5.85475478139289
C        -9.95761830012139    9.95771261512593    5.61665384311257
H       -10.98263757194566   10.05796206269170    5.93987136116757
C        -9.50681491784541    8.81179887397448    4.98659068842906
H       -10.20110117818841    8.00861463381494    4.78826142345696
C        -8.07682297542866    7.13319637615781    8.73324312803488
H        -8.53445877574573    6.55380149442052    9.54702023559969
H        -8.84767151783676    7.32860135499353    7.98567745173461
C        -7.58340663493936    8.45794130479136    9.24160927523367
C        -7.58999355862332    8.77714874918796   10.59462503542640
H        -7.95872827022149    8.06446191540925   11.31688617096576
C        -7.13786679441863   10.01325735182268   11.02403978861166
H        -7.13610626442663   10.28068325607398   12.06988527921432
C        -6.66954938452332   10.92398972378376   10.08870320731657
C        -6.67891116816338   10.63699477100971    8.72990281628199
H        -6.36799006140446   11.39666993258053    8.02989458269465
C        -7.13312155249107    9.39857204108141    8.31474781682439
H        -7.22163098031201    9.17737969864901    7.25422713770310
C        -3.27506767175388    6.92662039563186    9.39600086396927
H        -2.49119546047522    6.26027572427748    9.78303738112949
H        -4.02510572673015    7.06017864272344   10.17614194519566
C        -2.69989390903207    8.27060818274446    9.05042167311754
C        -1.36441449355457    8.42612905085820    8.68816999449103
H        -0.68396590410620    7.58943245954940    8.74632431773493
C        -0.89380456019469    9.65432171119555    8.26004435821219
H         0.13283059490701    9.79033778607026    7.95552567996880
C        -1.76772722171001   10.73016426482275    8.20238894861681
C        -3.07774172790825   10.62245649226933    8.64859839621243
H        -3.70628151653533   11.50112313550357    8.67201213476817
C        -3.53507496036607    9.38580012309071    9.06850978397370
H        -4.54392930128374    9.27818521928286    9.43809226658011

