43
CSD_code = BEGTEP | q = 0 | S = 0 | Stoichiometry = C14H19Cl3N4O2Zn | MND = 4
Zn        5.54478875918032    2.61290195484466   13.96823036524414
Cl        5.15577069978293    1.49729515731711   11.88504701593264
Cl        4.40115366256724    4.49192745857549   14.24285598272756
Cl        6.81486797565329    1.28568917585390   15.23029764609042
O        11.49891828218441    1.33940540383306   12.77938007865794
O         4.15656842341816    5.88079829471050    8.73349893744312
N         7.45063649091609    3.51299167063348   12.92652879552606
N         8.87264957597146    2.29846941170642   11.73757704244600
N         6.75412261564038    2.20708112822333    9.54993717503703
H         7.07366787646067    1.24978670634643    9.59853071928920
N         6.00999274825911    4.10693294895083   10.32892587882046
C         9.42253472365751    1.45092060623316   10.70901268118624
H        10.50727444215640    1.43347877173228   10.83359646792353
H         9.19022857251488    1.87943061542556    9.72968991867036
C         8.87511138783308    0.02229498371203   10.84554118875286
H         9.33209525131289   -0.43793716215423   11.72264218259163
H         7.79623022401352    0.04608529037504   11.02925862525634
C         8.51795107223028    3.24828065558623   13.69226643043626
H         8.58358777152446    3.61153353148719   14.69808977954651
C         9.19614681345733   -0.81064008040690    9.61173276380574
H         8.76114776572268   -0.37793821106230    8.71145141258877
H         8.80542783493142   -1.81722408754807    9.72961845383795
H        10.27198712972509   -0.87703683876622    9.47104546975364
C         9.43116130870541    2.48634839710524   12.98207364960489
C         7.67925891265481    2.93701394386177   11.74580531226958
C         6.77442511254175    3.04415786819819   10.62084471882106
C         5.41200789348594    3.88672002750658    9.10159714939208
C         5.86940658686417    2.67857409488668    8.64294050387393
H         5.63731374637162    2.15307777577254    7.73891174918380
C        10.70926390503519    1.97776843647455   13.43411123228732
H        10.90972185387050    2.24622496665656   14.48493548055804
C         4.48207291411446    4.77218987570744    8.40541299679872
H         4.09552848930307    4.30116070469252    7.48320124490085
C         5.79947219956474    5.27851697728747   11.14786515336479
H         4.91023984565628    5.78861417574171   10.77913258117758
H         5.61977684584581    4.96927189285480   12.18013694557682
C         6.99324208965273    6.23379619173486   11.08978477937634
H         7.14480645897101    6.57058244259837   10.06108129369890
H         7.89633165330119    5.71555872268438   11.41897216043327
C         6.73088834114390    7.42912036423634   11.99478363369721
H         5.85668522139716    7.97700408573038   11.65418143037044
H         7.58420556046288    8.10203089890864   11.99329281931829
H         6.55023096194912    7.09324077175546   13.01198015357228

