33
CSD_code = BEGYER | q = 0 | S = 0 | Stoichiometry = C14H12Cl2O2PtS2 | MND = 4
Pt        3.50562813327394    0.14570802746706    2.23286352268435
Cl        1.92411994285445    0.00631947630863    3.82870664166917
Cl        4.04062977905331   -2.03022362198415    2.43454802925343
S         5.11367332373314    0.39435997556594    0.60803910745880
O         5.31011283417606   -0.37843328970999   -0.59835707986327
C         4.98198574256248    2.12565789524036    0.06395421148224
C         6.69573998384749    0.60112847973816    1.43210709784266
C         6.67586594686730    1.02218960396190    2.75017659011542
C         7.87451714409919    1.17198081980428    3.42451795944937
C         9.06906847906770    0.89360516015441    2.77597331074115
C         9.07276975757795    0.46033111615903    1.45938352193000
C         7.87670393660807    0.30957007537392    0.77752299185837
S         3.01111568258989    2.37432045939452    1.94735567270814
O         3.03669231641848    3.43333300610266    2.93288185184857
C         4.10202956288080    2.93887245299768    0.60434931987576
C         1.49333522741707    2.49260290140285    0.99653914739677
C         0.72348633992991    3.63922444971973    1.02494217930413
C        -0.44879109820925    3.67388952311885    0.28814568388715
C        -0.83134654448361    2.56937883695855   -0.45684090160618
C        -0.05373530879277    1.42035646926313   -0.46711620700478
C         1.11764911741814    1.37817513879760    0.26756419226903
H         5.64934240847283    2.37006898309980   -0.74776443219856
H         5.72845545444546    1.21642404522786    3.24668866494447
H         7.87666892604522    1.49478507460683    4.45379662284842
H        10.00299503118339    1.00442595338974    3.30572242044177
H        10.00492311058686    0.23265644927321    0.96545741985982
H         7.83954868391432   -0.04636913261004   -0.24060862893559
H         3.97922036101212    3.98290057315075    0.36185882215116
H         1.04093743764984    4.47199616091604    1.63352597128684
H        -1.06579644592463    4.55924436847183    0.30196554330649
H        -1.74897505831797    2.59857619122792   -1.02453403021683
H        -0.36440787949161    0.55836607315335   -1.03634938300648
H         1.73103767153330    0.48037830425803    0.29258416621942

