51
CSD_code = BEHBEX | q = -1 | S = 0 | Stoichiometry = C22H18CoN4O6(1-) | MND = 6
Co        1.98114334389563   20.57312163031101    3.84987053954217
O         0.27901649847806   17.26743040244685    2.52208691321942
O         4.22551923000942   23.07656921155589    1.77853700649856
O         0.61516654728701   21.80729112275243    3.27655084508959
O         0.35473175688914   22.99788616057951    5.14676742884173
O         3.37061844390422   19.30855863518823    4.28145349208586
O         3.01093341474240   19.04756263218150    6.46939648753261
N         0.71295803750315   19.73647563304193    5.03537284021871
N         1.37398971637136   19.30970630972891    2.64063321847869
N         2.99355945270949   21.22651149957112    2.44461571390490
N         2.91262358124581   21.91880101398286    4.86696226958451
C         0.24675024615906   20.11386049299245    6.21858140347149
H         0.54081350250368   21.09379490689382    6.56281703381235
C        -0.61196332054643   19.33112191173982    6.97280542832026
H        -0.94910631201783   19.68455132042088    7.93526481445071
C        -1.01437713324229   18.09895973957450    6.48092746318421
H        -1.66116750376114   17.45331485815137    7.05874999734623
C        -0.58742175345432   17.73457808135085    5.21852962953993
H        -0.88860626513092   16.81505392068318    4.74009873662461
C         0.26133025375838   18.58251252770623    4.51880959033295
C         0.65255078359586   18.28956986947544    3.10032487781293
C         1.92845168003112   19.43622284940165    1.38130815784427
C         1.67663296688096   18.62602297928292    0.28147457849361
H         0.99942710171933   17.79291651717281    0.38103474787010
C         2.30581303798704   18.90131452090812   -0.92310157333844
H         2.11179573279841   18.27022289310777   -1.78042821302477
C         3.17526452960180   19.97364987412396   -1.03852320334917
H         3.65620939338463   20.17774670498899   -1.98612478688855
C         3.44076700333647   20.79070016110823    0.04986240130777
H         4.11579364801126   21.62762171803379   -0.03065581469704
C         2.82222974093009   20.52715500234218    1.26535959291175
C         3.62780731104879   22.38578149560387    2.60572824496818
C         3.57752312267800   22.75916502650436    4.05808780958873
C         4.25822468779001   23.87141495684547    4.53636954370589
H         4.75133214614785   24.50857536387437    3.81797985176715
C         4.28557645630676   24.11215170305355    5.89653050445921
H         4.79278271678568   24.97791159859465    6.29947749500807
C         3.66774703408800   23.19405403150621    6.73169761439912
H         3.69395936154764   23.31017580226845    7.80443236462410
C         2.99728096125935   22.11672550252093    6.17595312241163
H         2.54396689428801   21.36803061112418    6.80765024688102
C         0.12207421846654   22.75229451861745    3.96809164485282
C        -0.84494431690658   23.64183405651476    3.17365044876572
H        -1.51787242703827   24.15685838064621    3.85412092741455
H        -1.40039186789336   23.03782313022210    2.46230823090823
H        -0.25611773416900   24.37491065470346    2.62595890964024
C         3.58770348845677   18.78641379709777    5.41943173610125
C         4.69964665486614   17.72786223240393    5.39046824043732
H         4.92454305935233   17.39854829872445    6.40133034888831
H         5.58490909375672   18.14859691848292    4.92112251484594
H         4.35880178358831   16.88596681989127    4.79254858330993

