46
CSD_code = BEHHIH | q = 0 | S = 0 | Stoichiometry = C18H21ClN4NiS | MND = 4
Ni        0.52642378436656    6.86688939428156    3.01197982340572
Cl        1.05678971349713    6.59834126464552    4.97907557440124
S        -1.19506179571108    7.89359447889763    3.76415672809063
C        -1.94425692200082    8.74402453349288    2.46891305836052
N        -1.82811967505656    8.48035037726177    1.18210048958439
C        -0.98892539439795    7.63054211848711    0.62186100828719
N         0.04342233678091    7.03743526029405    1.17554173553593
C         0.89785889984258    6.26110952273271    0.28711078179919
H         1.19099763820779    6.86359264822841   -0.58464424904156
H         0.35858437550096    5.38073264691397   -0.09465073971624
C        -1.28971423389989    7.44101565911486   -0.82904741912599
C        -1.91712662711462    6.28306608251216   -1.27099642675972
H        -2.18265591207671    5.51236966609033   -0.56098608967252
C        -2.21852539278242    6.12710148369781   -2.61248614646933
H        -2.71076954747342    5.22708290787276   -2.95067718479773
C        -1.89296135678232    7.12260077652665   -3.51836150902394
H        -2.12620152377272    6.99759661199559   -4.56541958979385
C        -1.27572426706902    8.28159456714214   -3.07894668627298
H        -1.02869737163318    9.06343023088725   -3.78211110661536
C        -0.97818902261155    8.44403658400347   -1.73734393957864
H        -0.50409119848112    9.34917496659092   -1.38720559586953
N        -2.78860791363460    9.73530212404297    2.79507960471446
C        -3.01816252569043   10.13582910910084    4.16428075821036
H        -3.29688213879426   11.19234473510520    4.16223900340549
H        -2.08766744418208   10.01926158260127    4.72591414469643
C        -4.11359473777888    9.30386941216296    4.82699615574484
H        -4.27953380575337    9.65355764531673    5.84180278178949
H        -3.81322707776900    8.26081697761893    4.86363589084150
H        -5.04542402691467    9.38217539738340    4.27129229303278
C        -3.50174190820718   10.44532927733995    1.75283318863416
H        -4.45580653950179   10.78349571055877    2.16340209628474
H        -3.68673340960316    9.74543996085671    0.93569678732412
C        -2.69707116093545   11.63183554399923    1.22922864507291
H        -3.25743594730687   12.15048602792847    0.45626578860831
H        -1.76146013051938   11.27723453988641    0.80644354101006
H        -2.47450203733755   12.33277037498760    2.03064851639003
C         2.12320710574508    5.78541917877228    1.00573286250114
C         3.17769132764315    5.19105888546187    0.32254688945954
H         3.12219615736681    5.07999585937680   -0.74952026928432
C         4.27888922675624    4.75219787182906    1.03320884199287
H         5.11099018360826    4.28764049467055    0.52593102079670
C         4.28787102492102    4.92342810192539    2.40979135235901
H         5.12366592767124    4.59655250837385    3.00688333492217
C         3.20193060394512    5.52430418561655    3.01722435781345
H         3.16154362235812    5.67366258105294    4.08905205105271
N         2.13920911658331    5.94791013235962    2.33162784589858

