46
CSD_code = BEHHON | q = 0 | S = 0 | Stoichiometry = C18H21ClN4PdS | MND = 4
Pd        8.83633617397394    7.19848146794625    1.49312899882793
Cl       10.94578048264291    7.32877974601363    0.75908804355562
S         8.83243733068653    9.44885990831964    1.70979312530665
C         7.45881166213522    9.79584490827352    2.69838441203122
N         6.33621624243628    9.11077191979265    2.77739142659790
C         6.05648930944788    7.88563090033507    2.37748166303336
N         6.91359384445449    6.94622943763165    2.06310717277073
C         6.43323631939385    5.59231977333661    1.85382907322486
H         5.78289697240420    5.54159553835551    0.96566866361482
H         5.82892644295777    5.26422931983081    2.71275470801742
C         4.59176059224960    7.59670750786191    2.41879314458643
C         3.93294730529619    7.51985326408485    3.63877828903703
H         4.49045552427327    7.66631411292444    4.55184397404429
C         2.57462823338735    7.25886294965150    3.67855087294379
H         2.06733211353822    7.19609037461607    4.63006091028132
C         1.86603075727370    7.08331229178447    2.50186851984957
H         0.80568823487240    6.88102417411090    2.53398376126216
C         2.51669669983003    7.17636492314884    1.28288835084054
H         1.96374424312471    7.05328501454310    0.36326331031770
C         3.87617335059720    7.43011348939784    1.23921740857063
H         4.38227915091618    7.51939943601432    0.28797077436633
N         7.48369375474413   10.95058560917599    3.38780241803590
C         8.63154288743110   11.82837697703566    3.38841735707290
H         8.64317161452334   12.36546525689703    4.33997289930853
H         9.53855040305453   11.22244829965998    3.31659020565258
C         8.59355659884986   12.81750098963444    2.22595491876444
H         9.45541854946852   13.47678761609075    2.27368953111000
H         7.68804539542796   13.41917555079445    2.26214359477928
H         8.61931320991877   12.27879701498111    1.28324442092844
C         6.33558079383383   11.34196496201144    4.17962568429570
H         5.43981853854216   10.96979694361659    3.67837347431499
H         6.30312581682758   12.43306714304597    4.21590775857728
C         6.40355443372807   10.76559411669128    5.59147692472233
H         5.53311218231027   11.07480545427793    6.16358099535636
H         7.29939299125721   11.10648442162247    6.10559714150020
H         6.42444008679287    9.68062350182504    5.54081433837975
C         7.57532420396641    4.63567831219425    1.64439221105086
C         7.38026934864139    3.26029691810723    1.68874384575921
H         6.39735839309994    2.86748443486310    1.89947545541419
C         8.45229502198909    2.41587131856470    1.45853892138972
H         8.32166844058069    1.34489016594489    1.48809591780464
C         9.69376804050891    2.97517151678159    1.18998669929853
H        10.55525018445252    2.35498024738422    1.00294954245356
C         9.81559567722758    4.35212141825555    1.16559367956757
H        10.75952601018376    4.84481925962429    0.95645137895012
N         8.77886643673747    5.16124209293347    1.38753408239946

