36
CSD_code = BEHJAC | q = 0 | S = 0 | Stoichiometry = C15H17O3Re | MND = 8
Re        0.98019698206382    2.93244006144076    3.33275173915797
O        -0.93683216723631    5.23368044487096    2.58021480460887
O        -0.54125766292352    0.71747534518170    1.80984363383617
O        -0.26733762210949    2.35319547565204    6.09686620412634
C         2.81008183317110    3.68284430195356    2.05694130220848
C         3.01679622442208    2.28761559977929    2.29517082789772
C         3.14761152901108    2.08800111452480    3.70982105049371
C         3.09522931120373    3.37776631462389    4.33672317693041
C         3.45838142841162    3.72643557196700    5.75407677141441
H         4.27586244113459    3.08005820192718    6.08894692480344
H         2.61380221077966    3.55440060863846    6.42951416085881
C         3.88338636612192    5.19533959024016    5.83980732250956
H         3.93872063465087    5.49512268970019    6.88784995390950
H         4.88016800879017    5.31307029725988    5.40497823866648
C         2.90401862659212    6.09377893386837    5.08552171954800
H         3.12833131963783    7.14345213539326    5.28512410797355
H         1.88542476245871    5.89331981417881    5.43093816850067
C         2.99378070098548    5.82563391808697    3.58317890834650
H         2.22427953640333    6.39123698570194    3.04981903621540
H         3.96771383899549    6.16304630193871    3.20650689655880
C         2.86969694179452    4.35272084331097    3.32768418659084
C         2.89163066128832    4.36730202380778    0.72525081294103
H         3.93874870929529    4.52916723519670    0.45769287321358
H         2.39584441778970    5.33632410328326    0.75403275027264
H         2.43153203190909    3.76915141376704   -0.05957014788278
C         3.29212948727877    1.25683426669423    1.24388634652943
H         2.76111866812206    1.48108849754986    0.32008139519899
H         2.99894561913707    0.26197469170769    1.57592297241108
H         4.36241627412036    1.23935961310292    1.02440230171493
C         3.63013043612600    0.83130670046120    4.37162412221241
H         3.23784328376367   -0.05410281458577    3.87435779446125
H         3.32538134200860    0.79878318193833    5.41641820572945
H         4.72140400727002    0.78588772740518    4.33028928876685
C        -0.27793064959774    4.34100916116424    2.87233048692246
C        -0.03083271853623    1.55726346017268    2.40207387801190
C         0.13028318566610    2.55941618809588    5.04002778434101

