58
CSD_code = BEHJUW | q = 0 | S = 0 | Stoichiometry = C32H21O4Re | MND = 8
Re        0.25194177676397    0.54435568529486    5.39728469352674
O        -3.23432514688917    0.57663158258764    5.18271931791569
H        -3.50603056355920    0.29444299152578    6.06755340630856
O        -0.74922692582140   -2.35228786216550    5.00872461356346
O         2.00489971234542   -0.13219041430030    7.85195643064362
O         2.60004055998218    0.32372901511256    3.40122562846872
C        -2.08221026538614    1.28755566265295    5.26287455587324
C        -1.47143909248313    1.76273409722431    6.46480222052948
C        -0.42611433651518    2.69126621926872    6.08530595315511
C        -0.35320776222635    2.70004445868606    4.65820804386170
C        -1.35943193851047    1.79903938470594    4.14096036185202
C        -2.10699522882338    1.62185844588880    7.78398023784763
C        -2.40282346896043    0.35550148200278    8.28859117397417
H        -2.08484520740751   -0.52731756801013    7.74438775662892
C        -3.05057639128234    0.21955287991340    9.50265851713680
H        -3.26820300547857   -0.76670805871104    9.88489894969957
C        -3.40656025696679    1.34339427055736   10.22865927550698
H        -3.90662512105613    1.23721697272054   11.17950271574968
C        -3.11379066024313    2.60428169799898    9.73472452242052
H        -3.38843715222926    3.48351594634031   10.29844389757391
C        -2.47450517778036    2.74751069249282    8.51818018357157
H        -2.25980314943839    3.73312826577356    8.13095237933646
C         0.20084530598513    3.64758045769795    7.00720767571670
C         0.67282773212397    3.23561574584923    8.25297375264546
H         0.62011351785158    2.19071113411655    8.52671933400507
C         1.21796761600559    4.14943924842953    9.13300326323066
H         1.58208285157756    3.81377151479018   10.09260788090931
C         1.30206869126976    5.48765834667259    8.78512417102383
H         1.73213437950953    6.20101639347057    9.47219527992648
C         0.83023440132982    5.90681652020613    7.55297202479695
H         0.88594887268650    6.94956241346032    7.27647065405009
C         0.27908279222409    4.99753783606154    6.66978404391571
H        -0.10371364994326    5.33802877477253    5.71841914997773
C         0.44556501821609    3.64078597456446    3.85961054265383
C         1.81348043836072    3.78651023806666    4.08252367894195
H         2.30067365696845    3.17196188520263    4.82982618831761
C         2.54737935551358    4.69627277695210    3.34686126139003
H         3.60749910626798    4.79654303730501    3.52597162150182
C         1.92814520111186    5.47025868781852    2.37911860745946
H         2.50377662658180    6.17731465739601    1.80062024454012
C         0.56860696845882    5.33397036919574    2.15472008540690
H         0.07926297466448    5.93707374271209    1.40400298668012
C        -0.17216519585301    4.42790360992110    2.89005709532590
H        -1.23548656496360    4.33385932331194    2.71975076112710
C        -1.74222088553054    1.67082729001492    2.72958360682326
C        -3.08597676348527    1.66216567895948    2.36367865506083
H        -3.84855594061048    1.72304644279566    3.12543059327803
C        -3.44458805056622    1.57914677228605    1.03113690074591
H        -4.49036562809025    1.57457147111333    0.75981334688822
C        -2.47235409153833    1.50520701654150    0.04857129855995
H        -2.75618914447655    1.44243661762484   -0.99154295366483
C        -1.13363825854014    1.50312164312370    0.40570911191499
H        -0.36927127924904    1.43417609921759   -0.35419537450177
C        -0.76874449774204    1.58107943687997    1.73485393273838
H         0.27788800877571    1.55796363539661    2.00783196360633
C        -0.31555387359773   -1.30231658986807    5.15426619046810
C         1.37185713347385    0.09686711528507    6.92291244934341
C         1.74465197719283    0.35955883509410    4.16191514005310

