50
CSD_code = BEHKOQ | q = 0 | S = 0 | Stoichiometry = C20H19N3NiO7 | MND = 6
Ni        2.29887743980701   10.67792121743425    0.64615007181626
O        -1.92002720295975   10.64836356904714    4.74018787979828
O        -1.86227047712095    8.39769432566498    4.80341320488513
O         4.41597332055091    7.63258816646494    4.55133583080950
N         0.30114705665533   10.08328310561345    0.80678038361784
O         4.47356864936420   11.01954796604237    0.23067283501053
N         2.49431094594462   11.81796884814641    2.66287409386619
H         3.44350129632770   12.07060408947460    2.92108392649713
H         1.89487952290836   12.63665779248843    2.70754761033516
C        -1.42774061198248    9.53134397577984    4.72486768134094
C         3.23943297792827    7.33418870816813    4.69414369236646
O         2.63974511030624    6.29775105954325    4.91093151063154
O         2.13997798779606   12.76294873626872   -0.29755594076835
C        -0.79362082132013   10.81482170308015    0.77306533835413
H        -0.70444041286081   11.81038802271836    0.35660876508561
C        -2.03512431536989   10.37094138085768    1.23267536749425
H        -2.88740142540658   11.02983083593088    1.19367844087806
C        -2.14044005113029    9.10029439365086    1.74220715420672
H        -3.07568428307612    8.72309218918723    2.12531370082443
C        -0.99529777336296    8.28964451903136    1.79171669813690
C         0.21735728074032    8.83425265380247    1.31501448205799
C         1.41637601588364    8.04930904299344    1.39218727575786
C         1.36288864614574    6.75232844283549    1.94572745522453
C         2.56420882134440    6.02957893032920    2.03585002679459
H         2.56167943885747    5.04574154343813    2.47780308383486
C         3.72499476684497    6.60819396010477    1.58370038661130
H         4.66973062502407    6.09466519039988    1.65418822621654
C         3.67534163121762    7.89561680959112    1.04519943107363
H         4.57867988495584    8.36158829061456    0.67350208343668
N         2.56583763149425    8.59929116262457    0.94701334155961
C         0.12241283066981    6.24169868256195    2.42122253624089
H         0.12129842303480    5.26150974597553    2.87157969614573
C        -1.01161613704965    6.97767368491279    2.34399632249329
H        -1.94533943427358    6.60784815078841    2.73593559926695
O         2.32765075404524   10.33445192959183   -1.75870228804727
C         1.99231270532791   10.76032638119249    3.46679768166620
C         0.65211290044249   10.71454351931752    3.83138031959812
H        -0.01697337390803   11.52825107416873    3.59257423313993
C         0.15453736146176    9.59534052183893    4.46917041167667
C         0.94471280096386    8.51335655803930    4.79965660835508
H         0.53586529409625    7.63156320556581    5.26486779366259
C         2.28222173947395    8.59929127321348    4.46389487178195
C         2.81753960750594    9.70009661223156    3.82675379984728
H         3.87000126756779    9.70564494394962    3.58296782740332
H         4.90579139503677   10.86795181709525    1.07596953005597
H         3.26235546768300   10.09944538270734   -1.71864057633719
H         2.12067005552783   12.37039564012779   -1.18174698383582
H         1.83052677695690    9.51118608938493   -1.77638079288076
H         4.41734468034320   11.97296602546189    0.09818371225804
H         1.25071320959729   13.07491813051865   -0.11446434024852

