48
CSD_code = BEHNUZ | q = 0 | S = 0 | Stoichiometry = C21H18N3O5V | MND = 6
C         2.47319856624391   -0.29762690121076   19.43939346159625
H         2.14298780222359   -1.18707476693246   19.95597299073836
C         2.06043706872510    1.35843230711623   17.71711480684175
C         3.29537740694406    1.99319054375908   18.08588849146513
C         3.64768752359887    0.30691448780091   19.80955111199208
H         4.24757613065663   -0.09129944330417   20.61423730810473
C         4.08371350002284    1.46908919064207   19.14263069765643
C         5.26483857258582    2.17054616958134   19.46219726198701
H         5.89488789676940    1.81049952357967   20.26344052641832
C         5.59084569182896    3.29683813941857   18.75422422819580
H         6.48387065383945    3.86003641142867   18.97715268973484
C         4.74605413663755    3.71739760891727   17.71372966254910
H         4.99000567123707    4.59677551430346   17.12821568926730
C         2.84401668423549    3.76001799340654   13.70683938265559
C         2.82656480915165    5.13434804553840   13.68750390296610
H         3.08213440337503    5.66007539760760   12.78149212073087
C         2.55172464165409    5.89037201128882   14.85034338703531
N         2.16143912120375    5.30327943485845   15.95293732750383
N         1.95070428207587    6.06979743101733   17.04130684023370
C         1.38684888425383    5.36414888104262   17.99340773660821
C         0.99900424086307    6.00300074238362   19.25432446923503
C         0.41204531628463    5.21608920335357   20.24808298946015
H         0.26730808399977    4.16516947697272   20.04083202354089
C         0.02479933604771    5.76487326035631   21.45090220406830
H        -0.42952165285141    5.14605181547412   22.20922851985213
C         0.22012128902573    7.12116654966441   21.67883663350035
H        -0.08245151076185    7.55946025677350   22.61824592907769
C         0.79704582445229    7.91648971248394   20.71114186516689
H         0.95189704975553    8.97159077788862   20.87351042273375
C         1.19412625768163    7.37700801641503   19.48713946997078
O         1.75044344598410    8.19713766061597   18.58262534264365
H         1.95124481395279    7.67176887322244   17.77647042829053
C         1.67987916744465    0.21356432359023   18.40978942289758
H         0.75211895232901   -0.26992391709638   18.13984532038998
C         3.17332370720127    2.95009297979492   12.48108864829662
H         2.26345485602279    2.45705014889479   12.13835207425724
H         3.89567506260611    2.17574922904443   12.73464577602318
H         3.56308829532927    3.57540612347617   11.68487667827276
N         3.64521941398994    3.08937772417349   17.38990267979835
O         1.35732592615018    1.88285130296382   16.76721094934451
O         2.61679712621358    3.11154288112068   14.79120042893849
C         2.71571355872405    7.38245965420500   14.83431796084952
H         1.76757228486982    7.85122577459826   15.09495691801895
H         3.03435938250480    7.72887758271414   13.85649719546163
H         3.44638538110232    7.68496752578066   15.58341269841801
O         1.18776465764204    4.11353675046770   17.80757790388890
O         0.21368048715713    3.79791992248546   15.35323463712264
V         1.50176579901728    3.45253766832361   16.09617078620190

