101
CSD_code = BEHPOW | q = 0 | S = 0 | Stoichiometry = C39H41LaN5O12P3 | MND = 8
La        5.66243369879870    1.11199718364054   11.32598971698607
P         5.43392156031002    3.25662147317397   13.67415367164746
P         4.98107151666280   -1.88615086889816   12.00652648233923
P         4.88106203876546   -0.18411531848755    8.48503157217604
O         6.33110295704921    0.84669886267379   13.51855293780012
O         4.78721428915463    2.93233810511858   12.36941863805315
O         5.29167792453151    4.83310725500801   13.88023050009629
O         4.60795922854928    2.64392647406310   14.92630657497113
O         7.33431402143598   -0.59627361818576   11.29829746015462
O         4.33235546453331   -0.53761040269875   12.16248813305859
O         5.85389072585228   -2.24510306422918   13.30194317260857
O         3.84177923155008   -3.01539005333639   12.09171166200145
O         3.56125699691702    1.25090386714933   10.23498975790047
O         6.05091810370497    0.37452277858150    9.21782650877838
O         4.44866813372539    0.99804393670203    7.47874919451782
O         5.32884630266636   -1.30825976374483    7.43675623563923
N         7.03159637856235    2.94999651405063   13.94114773125540
N         5.90206374888053   -2.27832894501639   10.71732810248965
N         3.55471676885591   -0.79012686955337    9.24445751333136
N         8.03860304799557    2.13874296165943   10.55137150842870
N         5.70745639010463    3.20488596478730    9.68818655428537
C         7.24479345749838    1.65246642596506   13.86234438792929
C         8.57262899232236    1.13510524589151   14.26682598568599
C         9.53928752054020    1.98449492811784   14.79891971931618
H         9.30641720929627    3.03287023770842   14.89747151976114
C        10.76602918265714    1.47709073064198   15.18496597806545
H        11.51626106860151    2.13510298461933   15.59931087917793
C        11.03422597225870    0.12380929677321   15.04430493457675
H        11.99391684800571   -0.26944573388042   15.34819395834409
C        10.07314005405257   -0.72420364389679   14.51605080778709
H        10.28486085285913   -1.77769577497900   14.40575303471583
C         8.84228507949072   -0.22589495446618   14.12958604063397
H         8.08482649794999   -0.86557891393464   13.70065739695285
C         5.88969627957625    5.43169234694718   15.01801984884487
H         5.27905094836966    5.25365538678776   15.90492800675180
H         5.94899509031999    6.50086018444944   14.81456720601283
H         6.88493792685290    5.01844005945883   15.17736607476959
C         3.52438980701064    1.74602352452331   14.72775336730246
H         2.61315596386099    2.30751207043821   14.50885501853728
H         3.40536696929345    1.20000605784597   15.66510987956873
H         3.72990423928777    1.04602026556117   13.91201790147930
C         7.01917090459278   -1.58802564681921   10.59580173692666
C         7.95094778478599   -2.10167713901970    9.55735810640535
C         8.09343546466785   -3.47031014776453    9.35803842784749
H         7.52073505670573   -4.14730431447925    9.97261878018442
C         8.96126776017025   -3.94331789343576    8.39030437806968
H         9.07445234174491   -5.00751655238780    8.24093795720428
C         9.68359509908785   -3.05516106705244    7.60966831591964
H        10.35732353510011   -3.42660503906682    6.85062946440782
C         9.53708603378198   -1.69106488158432    7.80110956169484
H        10.09193760379711   -0.99631673644364    7.18660419178408
C         8.67935198166928   -1.21503275817947    8.77577385489307
H         8.53084757483887   -0.15869976712011    8.92244069645272
C         5.31856593957051   -1.92235990787627   14.58199518557503
H         5.95466435836810   -2.42577372524357   15.31055368827759
H         4.29186506888675   -2.28095066950958   14.66618363039672
H         5.35040122018058   -0.84242974961540   14.73554085712135
C         3.27563592330031   -3.58571135407059   10.92190858235690
H         2.25890191342264   -3.88349062090286   11.18190810854553
H         3.85747105878701   -4.46032898209776   10.62412305880424
H         3.26383554051311   -2.86197805274894   10.10830636505961
C         3.04241028789689    0.11483517507014   10.06083830813966
C         1.76745991348462   -0.21485840942808   10.74101506022141
C         1.40886721108697    0.53757065765587   11.85533306981908
H         2.06705158861415    1.33846767092637   12.16355452464142
C         0.24297745707799    0.24814618942580   12.53859129274162
H        -0.03028608711219    0.82345109990079   13.41155079417249
C        -0.57834822345951   -0.78067712999126   12.10415382073199
H        -1.48938338855220   -1.00808731522009   12.63911352827085
C        -0.23525720114369   -1.51471441501667   10.98000764560103
H        -0.88380366828021   -2.30775045984719   10.63584303002548
C         0.93513496972794   -1.23559775668293   10.29735075405540
H         1.21257061497313   -1.79370613331161    9.41671960574635
C         3.29585875317930    0.83863306270106    6.67422448310864
H         2.41073944620841    0.69046242462466    7.29671525003242
H         3.41179065999458   -0.01672032605674    6.00599870924583
H         3.19422203466998    1.75529724812948    6.09314244637602
C         5.12696867476613   -2.69808665320474    7.65937545132652
H         4.09354723249553   -2.96506226308409    7.43081156610867
H         5.35278254387344   -2.95855553504545    8.69265916795428
H         5.80806633859328   -3.21300370636442    6.98117793388153
C         9.19344525225916    1.67514497916838   10.98448158441048
H         9.22224009931693    1.32296079392059   12.00676243422448
C        10.35343464061004    1.62791867142716   10.19928259605527
H        11.26470407631018    1.23206557775615   10.61927273997110
C        10.30007722675816    2.07151535245121    8.90188796970314
H        11.16724686748890    2.03630124245812    8.25728774570669
C         9.08725881319186    2.58080801920138    8.40755424529716
C         7.97859746489036    2.60360844832960    9.28577432556380
C         8.94193507483471    3.05335267270962    7.07115559995862
H         9.80206363279344    3.00298631434762    6.41900673210416
C         7.76078580795395    3.54479126645502    6.62822771090399
H         7.65259339736222    3.89493387005345    5.61173214905985
C         6.62997081304848    3.62028935695530    7.49054936426885
C         6.73039270431414    3.15184968582943    8.81915657650880
C         5.39320780052599    4.14771508649521    7.08376972071738
H         5.27238164912715    4.49675962999622    6.06729583359466
C         4.36706872870721    4.21850467558242    7.99172908342970
H         3.40746392479230    4.62896885879012    7.71671042289997
C         4.57378445319774    3.73994330632152    9.29259341545900
H         3.79330776172195    3.79763657483791   10.04012278526927

