55
CSD_code = BEHPAH | q = 0 | S = 0 | Stoichiometry = C26H20N3O5V | MND = 6
V         8.77242024625240    3.52622543458568    9.31167046866729
C        10.46132182526783    4.31748856065384    7.28738875805191
C        11.63594113705392    3.89734456689331    7.87420410791914
H        12.58374396953227    4.24470248309655    7.49718845991161
C        11.63548439264186    2.98357321767668    8.95190682794430
N        10.57325198878172    1.73163939218252   10.53093299891066
C         9.40098478691101    1.62050200282509   11.11529218754393
C         7.89959376087157   -0.89566581100846    7.43436234906005
H         8.39745386842625   -1.79525203988625    7.10671513958399
C         6.53672672334430   -0.84210051833933    7.55922025431893
H         5.91865735777171   -1.69890935389061    7.32978198734648
C         5.92795206361401    0.35124969819663    8.00043045825369
C         4.53937594713588    0.51286076420057    8.17676512156308
H         3.88359551556908   -0.31590855532927    7.95519845285831
C         4.03934415630104    1.70637596689121    8.63191806934319
H         2.97415600245718    1.82376687750626    8.76826375334237
C         4.87707182198462    2.78167077454274    8.93682054369977
H         4.46619290888097    3.70983781017702    9.30720741701590
C         6.25548242478357    2.67817323274728    8.78296339535942
C         6.79081156100565    1.43912991078605    8.29202682904513
C        10.42189161165757    5.27796587642391    6.16830240743766
C        11.47390828347126    5.44449570809033    5.26904887520797
H        12.36017253903117    4.83425856273154    5.35267583859700
C        11.37371661466546    6.37282819273043    4.24959872418201
H        12.19025352718634    6.49345768768969    3.55281644533219
C        10.23020925916861    7.14403724063837    4.11446731730983
H        10.15931751849869    7.86931621106013    3.31751890010401
C         9.17837618039388    6.98168333638705    5.00223396179947
H         8.28719500839982    7.58303432865156    4.90005222830858
C         9.26952146652888    6.05264257089508    6.02046188697038
H         8.46251280348245    5.92235618545580    6.73123301815134
C        12.92942272542682    2.40752342947940    9.45067685865974
H        13.05173672593734    2.65367753006832   10.50485047320721
H        13.77204837010281    2.79661732663649    8.88812409167700
H        12.90839067639472    1.32133813970216    9.36893446410604
C         9.24310819997286    0.73853821395309   12.27539883528523
C         7.97868357242702    0.62170772775169   12.85819479578128
H         7.16877129858279    1.19323313613263   12.42724883898777
C         7.77335702528050   -0.19298639060772   13.94975178579024
H         6.79193589459590   -0.27364106064470   14.39072451840911
C         8.83945301409723   -0.90925797191293   14.47975848296305
H         8.68665770920084   -1.55002603143561   15.33539435778257
C        10.09578584453705   -0.80834389609562   13.92054687256511
H        10.93353207455747   -1.35650998306954   14.32227494142407
C        10.32160234876948    0.01327808775699   12.81537673082043
O         9.23361420656548    4.74473273194705   10.10690213644487
O         9.33106715522234    3.86350189354441    7.71107038938188
O         8.40760398367476    2.27843324358212   10.65415745998705
O         7.07703346549431    3.63520469186628    9.07157665716619
O        11.56452008331958    0.07222627261779   12.31396208990572
H        11.55912653029602    0.70084840816257   11.55780203521705
N        10.51557676831052    2.62756485141067    9.52995419810425
C         8.65781250066681    0.24861700140514    7.73323246298097
H         9.73683995746984    0.23638616075141    7.62689471843317
N         8.12568259802324    1.37175617173459    8.14102462179401

