72
CSD_code = BEHQIO | q = 0 | S = 0 | Stoichiometry = C29H38BrClNPPd | MND = 4
Pd        3.89334412264456    0.08663337605764    0.43055462954017
Br       -2.13760145468796    1.21156894080884    4.41878731764942
Cl        4.15008005321256   -1.42764534707303    2.22459579166516
P         1.94979216340006   -0.84063394368220   -0.19326929196469
N         5.72830839865382    1.05353614268237    0.98668742815997
C         3.78689202522700    1.68989845249995   -0.76423991272505
C         2.66311473735347    2.38701315311659   -1.18652854027349
H         1.67224434443676    1.97702624065480   -1.02687113084321
C         2.77278998068903    3.62278605789159   -1.80731816507432
H         1.88077407395946    4.13724653035001   -2.13594064274218
C         4.01503330627555    4.20262388946365   -1.98606338492758
H         4.10463789278997    5.16840618723108   -2.46160818953302
C         5.14373018772212    3.55422148263026   -1.51618275399540
H         6.11198261379682    4.02816970066585   -1.60542311573074
C         5.03590533645993    2.30722443536962   -0.91644387725639
C         6.23430507809295    1.61656819390488   -0.29586731877518
H         7.00827529438270    2.36981121126670   -0.06110868053135
C         6.89261765572815    0.60591561438149   -1.29824584797055
C         6.10966317035276   -0.70535282364900   -1.42736465692845
H         6.64316070694312   -1.37621273763910   -2.09933222735513
H         5.12241269963674   -0.50451354399170   -1.86017875404231
H         5.98830620682908   -1.22406940062658   -0.46872723142770
C         8.35728121251422    0.31109617680514   -0.93749139192196
H         8.84810038215812   -0.16003811112657   -1.78702027912078
H         8.46211407168311   -0.35978871446478   -0.09259000054453
H         8.89330421323092    1.23176603931414   -0.71523732211056
C         6.92059572369843    1.26367004551035   -2.68845071027852
H         7.40961579094434    0.59816158809435   -3.39655132509841
H         7.47655838927467    2.19767267604938   -2.66393202560356
H         5.91774415395792    1.46923982409249   -3.05265186867934
C         5.29089838173942    2.15025310875529    1.86412780712855
H         6.15301678147662    2.75304045016107    2.18589102560121
H         4.81529651674024    1.72540062534892    2.75330018171551
H         4.58187790818278    2.81118541300000    1.36141067413938
C         6.73864891721008    0.31566587085878    1.74221849917882
H         7.64914640683716    0.91617741278990    1.86361071140056
H         6.98169370145530   -0.63055592290377    1.26761364029139
H         6.34235890289780    0.07823807596376    2.72979506674318
C         0.71946370842725   -0.32395997127395    1.05132183888751
C         1.15109528855267    0.63996433725462    1.96215452952384
H         2.17515718101054    1.02573616188726    1.88949346274040
C         0.31407526728285    1.10131039369734    2.96066613653775
H         0.65220344869964    1.84415830898399    3.66704195009041
C        -0.96936398280154    0.58886016547166    3.04869344527289
C        -1.42256084848473   -0.36964917190781    2.15755105142225
H        -2.42520626259119   -0.76045417692677    2.24447593876761
C        -0.57690280003143   -0.82231214347858    1.16140486836342
H        -0.93826130324619   -1.57322667814032    0.47474272887907
C         1.22242258270175   -0.33899683156701   -1.79381376085232
C        -0.08725102344355    0.09146967578660   -1.96457862272689
H        -0.75575843724734    0.15527373876568   -1.11857672027229
C        -0.53721077589768    0.47022408607800   -3.21805979129525
H        -1.55572287575357    0.80938188920994   -3.33919216099194
C         0.31146982715104    0.42463037090014   -4.31019053163647
H        -0.04365764343005    0.72419738543632   -5.28477899439039
C         1.62292035805968    0.00779119530891   -4.14612430639943
H         2.29382410467243   -0.01658956043485   -4.99215692047133
C         2.07380475375454   -0.36457706337985   -2.89537010042338
H         3.10482754121461   -0.66320353491683   -2.75440320424005
C         1.87683995774993   -2.73037693752520   -0.31090130527859
C         1.60600601481550   -3.32697661148593    1.06892537434541
H         1.75263838926379   -4.40554700345939    1.03423365206233
H         0.58967642836378   -3.13225871043679    1.40291372840729
H         2.29892739220637   -2.91442798460466    1.80007323720147
C         0.83123760491080   -3.21776181287003   -1.31469873148065
H         0.80907815353165   -4.30679228513143   -1.30184277865478
H         1.06891542699412   -2.89503397288077   -2.32645364476362
H        -0.16645283878748   -2.86017873710130   -1.07066749945333
C         3.27412441499402   -3.14707234010129   -0.77847751433332
H         3.34597212874095   -4.23227483223526   -0.83012897961893
H         4.02145864465333   -2.78709129406222   -0.06753666683287
H         3.49309012606381   -2.74334242542440   -1.76729383614538

