75
CSD_code = BEHRIQ | q = 0 | S = 0 | Stoichiometry = C34H35Cl3NOTa | MND = 8
Ta        1.07633241458662    1.23485660723676    6.09070077154257
Cl        2.78085746866090    2.73507938329578    5.51791553879949
Cl        2.50496527227863   -0.48613351171763    6.02852666750946
Cl       -0.67755740382054   -0.18408979395104    5.47676854342185
O        -0.05355349594832    2.56830964624481    6.33692151962013
N         1.16261546314190    1.20427972503907    3.35713957596099
C        -0.98696932010201    3.17334422771579    7.05757560516867
C        -1.19448062667965    2.62199781083629    8.34646130928257
C        -2.19822248127619    3.15252774200700    9.14674148444010
C        -2.99358010312642    4.20429091950163    8.71347258279690
C        -2.76160942310698    4.72686897363323    7.44494796066688
C        -1.77617350401140    4.23576364327869    6.59831722893750
C         1.32808777134431    2.30820800673756    2.63832364054635
C         1.54769098210866    2.28711731406703    1.27474692917865
C         1.61315097910197    1.06102801327712    0.61135178260221
C         1.43368608187038   -0.08946258937452    1.38017204720353
C         1.20985110000056    0.03077298031215    2.73867902540536
C        -0.35207982604439    1.52190438773667    8.77225795817400
C         1.09948839726686    1.45032140281393    8.53121352910632
C         1.56741516937672    0.26322872131805    9.19222413165327
C         0.48150830950326   -0.41234248593597    9.71126395954118
C         0.37598777801798   -1.64596151915887   10.39613471695325
C        -0.85017078120198   -2.07627690405749   10.79893617149229
C        -2.02277129967693   -1.32476211592715   10.52798643337428
C        -1.96985478906033   -0.13407608226119    9.86914647380282
C        -0.71426355150901    0.36894746805003    9.46000545484767
C        -4.07307043147977    4.74642204279947    9.63894378953269
C        -5.03278560414924    3.60723537332692   10.01025776514400
C        -3.40690781835088    5.29831631379924   10.90710977258061
C        -4.89443782466416    5.87102161019582    9.00257009616523
C        -1.53891680336733    4.78268457047728    5.19757247291021
C        -1.81239421379938    3.66499919329532    4.17908983668113
C        -0.08446468835200    5.26264349010778    5.08549285329281
C        -2.45309843631356    5.96506391381273    4.86184965244303
C         1.86818947524978    0.98720657515303   -0.83174703877326
C         1.27928526207257    1.90124796520591   -1.70309748773980
C         1.52346894315993    1.83008188185330   -3.06169912828638
C         2.36707882311343    0.85502393003453   -3.56740019487010
C         2.96054743063735   -0.05501333284701   -2.70831714563437
C         2.70944600893848    0.00510032046218   -1.35038642660934
H        -2.32596525845237    2.73192076766195   10.13134285419744
H        -3.36966711587492    5.54214543885503    7.10011448774703
H         1.29346836408192    3.23941637429788    3.18637555218189
H         1.69365766380527    3.21053589369291    0.73695637645079
H         1.45355338196562   -1.06529233807901    0.92146784120956
H         1.05672736745890   -0.83979389642300    3.36213002734768
H         1.68769703947282    2.36545378663727    8.60608300999771
H         2.60099290900195   -0.02850571325791    9.26269773132622
H         1.26684723834099   -2.22718997343522   10.58473733716888
H        -0.95211127342805   -3.01407943762551   11.32624160582766
H        -2.97358869877760   -1.72308729164189   10.85245975937080
H        -2.86868243516599    0.42197404321816    9.64594299610951
H        -4.51882892883719    2.81495061270146   10.54629941172911
H        -5.47586682435068    3.18174967110263    9.11249362475363
H        -5.83205539271750    3.98331259674778   10.64537374417272
H        -2.71370613425833    6.09638472589262   10.65032624250347
H        -2.85487049466517    4.52387186407889   11.43156227724376
H        -4.16033892031515    5.69862812801908   11.58216385952919
H        -5.65505630879290    6.20454055878631    9.70561045628885
H        -5.39795449905093    5.52647622799928    8.10246040628048
H        -4.26792442882175    6.72566130961845    8.75875789452857
H        -1.62818366202658    4.02557834268579    3.16881491761102
H        -2.85046612876409    3.34613624937544    4.24750711393207
H        -1.17863354477898    2.79795234100307    4.35793868945162
H         0.61919091051803    4.45779676791290    5.28804524945865
H         0.09930376499892    6.06241406685679    5.80020175743296
H         0.10595559316600    5.64728680177747    4.08537548898310
H        -2.22645390997848    6.31891819936320    3.85824482308745
H        -2.29635834396374    6.79041996631315    5.55204020949034
H        -3.49991747699803    5.67254228773302    4.88453574293851
H         0.60755692944651    2.65263492165172   -1.31518403531805
H         1.05520575579033    2.53844741558807   -3.72870849545235
H         2.56150061228070    0.80451295776808   -4.62811267083860
H         3.62206203731222   -0.81404419898107   -3.09811441335697
H         3.18871950805382   -0.69484528644214   -0.68215173213074

