63
CSD_code = BEHYOF | q = 0 | S = 0 | Stoichiometry = C26H30Cl2F2NPPt | MND = 6
Pt       14.72103170423006    5.02116749479983    5.16019201282774
P        14.04433604033597    3.81929558621691    7.04756168568653
Cl       15.22839060590925    6.10508706472642    3.10553025090488
C        15.87713598605287    7.38810426427503    6.24384671374568
C        14.56922166485058    5.68649056164661    9.08686157893773
H        14.48296166141431    6.36153996221772    8.23278791776876
H        13.59874621310770    5.66831506939730    9.58508239906221
C        12.62077194528200    9.27501845736068    6.30154584219127
H        12.21512306689933   10.24487000225154    6.54232303901368
C        17.52513864482356    4.32375201412449    5.20261477430827
C        16.31589966704213    3.73814266349126    4.75651244554585
C        12.25692683610365    7.02080815956901    5.48206598228475
H        11.56619269471771    6.28879890765106    5.08840950879811
C        18.74395141603424    3.66969891224748    5.00932221806435
H        19.66575600558175    4.11217193367437    5.35560658717742
C        14.92933469133144    4.28380863884531    8.59839387972320
H        14.71554540650028    3.53708081702949    9.36763836709600
H        15.99961100087134    4.23489324744367    8.37293169029360
C        16.37814199527266    2.52757925244086    4.08449213252747
H        15.48425826186578    2.06263480845276    3.69421013836631
C        11.75418430828427    3.37351484837961    8.71247930183939
H        11.91292276952154    2.29463029545099    8.67989803826679
H        12.28917803520581    3.76490327102662    9.57946678790212
C        13.59911036268768    6.71743703652008    5.64729769727110
C        13.96219809444900    8.99450610229923    6.45754931035001
H        14.62041354110149    9.76670456983985    6.82579591682140
F        17.64275717118661    0.71595578845087    3.26494319935314
C        10.26302110021463    3.64513810649383    8.88045497230769
H         9.70728496844856    3.24537550844473    8.03612994491097
H        10.07246669043485    4.71415241245118    8.93940793099128
H         9.89116101110465    3.17872687014625    9.78958377903379
C        18.20894499969144    7.74909144778823    6.65320986778277
H        19.01783625503751    8.38772349771895    6.97532018161692
C        17.42406185614283    5.65592767085846    5.79228876143853
N        16.17757756513164    6.13780396116298    5.87279824128857
C        18.78589803987544    2.45023827201555    4.36615978062544
H        19.71588297382038    1.92772899183279    4.20738506562372
C        18.48084499527788    6.46656189529322    6.20822892113869
H        19.49504712036188    6.10678500236847    6.16560509052255
Cl       13.02512399991362    3.70121643115022    4.24042137203248
C        17.60043182652619    1.90547880868314    3.90042423938321
C        16.90960102789769    8.22730562871217    6.66266071152860
H        16.70166607491576    9.23655077421539    6.97517866330293
C        14.46029948404524    7.73038246041855    6.13597300559760
C        14.28518563439334    2.00209842959145    6.92199107672041
H        13.55104438587701    1.51426056374069    7.56827953537381
H        14.04564040551300    1.74193470977451    5.88713450858047
C        15.69394168448363    1.52618886178526    7.27745736889445
H        16.43390387473083    2.16307917136497    6.78880691011795
H        15.84965294161012    1.59533163999508    8.35617801522045
C        15.90374854496477    0.08400123668733    6.83165197056084
H        15.81175413653587    0.00257501988765    5.75205222057014
H        15.16618180232437   -0.57110131479556    7.29000882205873
H        16.89458867076366   -0.26063332554462    7.11675271003977
F        10.47643885466669    8.55412147757310    5.66271692256738
C        11.78993142569563    8.28219277814716    5.80937961753699
C        15.61953598306247    6.22694993599548   10.04979328014120
H        16.58522327560662    6.31015773967887    9.55471445405708
H        15.72923659481017    5.56815159371641   10.90861981491939
H        15.33340488747127    7.21262278456526   10.40777961814955
C        12.26037350387040    4.02893132911829    7.42831397191817
H        12.07356965603073    5.10667135362702    7.46201486960736
H        11.72625395810662    3.62846854551728    6.56146436771881

