44
CSD_code = BEHYES | q = 0 | S = 0 | Stoichiometry = C17H20CrO5Si | MND = 9
Cr        3.14593877826786    1.29285730254963    7.04042847709407
Si        0.56219323789887    5.91541174859490   10.30520268842637
O         1.71063027241554   -1.11090056508641    8.05037119252348
O         5.34747019093157   -0.71055377954856    7.02028586833941
O         3.93361806138758    1.40168361580624    9.90760482786767
O         4.03866747590770    5.73119965865641    6.74740242249440
O         5.77333861913629    4.29107869417668    7.12048119965760
C         2.23035338066646   -0.16950587846867    7.63081648051331
C         4.50320578438349    0.07726321354410    6.98173632441540
C         3.62294584290101    1.38491504104007    8.79449959052740
C         2.16883367679386    3.32913318660369    7.01695228173098
C         3.53411562285887    3.46251402794865    6.62642757780582
C         4.01798481960299    2.74900386827983    5.53408851117545
H         5.02951308733770    2.93541734426466    5.19359650945888
C         3.17602256220623    1.86471522491852    4.82894839742225
H         3.54706641966834    1.36462913919843    3.94247676964608
C         1.84359870733000    1.71867689374544    5.21311612415911
H         1.17318176778483    1.09728668060432    4.63089764345421
C         1.33985794090911    2.44349295632100    6.30835840583153
H         0.28669852642605    2.39105728184954    6.55969867271625
C         1.64906172463350    4.13207630182650    8.05655717208054
C         1.20695260923199    4.83801375272774    8.93401042929118
C        -1.33979739017396    5.81135476876361   10.28811414033570
H        -1.74619838882237    6.15647940118482    9.34195720109594
H        -1.77563833678709    6.42090709728284   11.07452912849452
H        -1.67835876812593    4.79058140758612   10.43831113183645
C         1.14829014075500    7.69823866650415    9.96440988702022
H         0.86794152326704    8.02040481161161    8.96595922384183
H         2.22826675140680    7.78251013475466   10.04348732982204
H         0.71327745935223    8.39952478831049   10.67086441870405
C         1.27857328167958    5.26155896287518   11.94436780523679
H         0.92828610945605    5.84554929916011   12.79083081695281
H         2.36392827752158    5.30007775389373   11.94504859531314
H         0.99026575561448    4.22861652138443   12.11417728926338
C         4.39434149105885    4.50564615831155    7.31136986026779
H         4.17521731025804    4.51164870310210    8.40310636355706
C         4.56726706565876    6.85257406298311    7.42372728025885
H         4.20287695382451    7.72495978224029    6.88696399434584
H         5.65996331243242    6.83748226398744    7.41321124909302
H         4.21050245759886    6.87673622339213    8.46003127443586
C         6.36807440306743    3.39604240507202    8.03416583305928
H         7.43417029679798    3.41818475669313    7.81879584682843
H         5.98597008392414    2.37562063263231    7.90977502153570
H         6.19403110159993    3.71553568861362    9.06753874215814

