42
CSD_code = BEHYEV | q = 0 | S = 0 | Stoichiometry = C19H15Cl2F2NOPtS | MND = 6
C         9.72901573259622    3.23430889393794    5.14075771133180
Cl        6.69586141296795    3.12875358592200    4.43546484465185
O        10.85247155037450    6.58082437071204    3.87993928611631
Pt        8.58680825884950    4.30947642420439    3.74718643271549
S        10.49676389613991    5.46564471348010    3.01961497621039
C        10.41869540023453    2.03812311440122    5.04676033596144
H        10.44116364434380    1.47888843899745    4.12260890605243
C        11.08092755903317    1.53722412236620    6.15624632821567
F        11.75997727664188    0.37852892522521    6.04626308640582
C        11.07822849197411    2.19359839573897    7.37515615759937
H        11.60195569665917    1.76642286905753    8.21564585424328
C        10.38940597274912    3.38447790870591    7.48338971479033
H        10.37379077300392    3.89605730616927    8.43333345574273
C         9.71582534231358    3.91332775987153    6.38104783575913
Cl        8.99513724754934    2.99300377301445    1.87449870151490
C         8.96358801798246    5.16553917552745    6.43888111556761
N         8.33511367440065    5.49150109303261    5.30632327815884
C         8.84891983386477    6.02235580775713    7.53322041205590
H         9.34365064215087    5.79333517228488    8.46172265409628
C         8.09278703267983    7.17497234607111    7.40498104541709
H         7.99727958628045    7.84855590673452    8.24316381514499
C         7.46091179222428    7.47263953644866    6.20966492237264
H         6.87619170914596    8.37121523179632    6.10898586016765
C         7.59809205991048    6.59244307843303    5.13667678126339
C         7.01331695440463    6.73637451606164    3.80455308900319
C         6.16780458000080    7.79235895736333    3.46014815656948
H         5.91587478517402    8.55226721686890    4.18372302525919
C         5.63446610709014    7.87373250946347    2.18997258611288
H         4.97608750610824    8.67913780493235    1.90521290077195
C         5.95180501745106    6.88660277269905    1.27265455753269
F         5.43763775273580    6.96826018818665    0.02974340289928
C         6.78718930841728    5.82686140554857    1.58810962779714
H         6.99197786281062    5.07599573624651    0.83874245486975
C         7.33315056789743    5.73689660668669    2.85664163973564
C        11.95657728699672    4.40391490641369    2.82512657429382
H        12.76622860774988    4.99333712643250    2.41151092113564
H        11.66577779776817    3.59256388363736    2.16724312035911
H        12.22742305394213    4.02342955078179    3.80405774532550
C        10.36854831403280    6.07661352569084    1.31480166013736
H         9.57867815474955    6.81938424070798    1.28375763187800
H        10.11501224658560    5.22290242263982    0.69600860450257
H        11.31558149201533    6.51914867974886    1.02855879026263

