61
CSD_code = BEHYIZ | q = 0 | S = 0 | Stoichiometry = C26H30F2NPPt | MND = 4
C         0.36850662674235    0.94001991071123    8.62789846630895
P         0.67809274217579   -0.16674488977864   11.80726849458736
Pt        1.57493365184918    1.26102177488175   10.27907953594699
C        -0.47339195397967   -0.10663862635856    8.26148329256761
H        -0.65987984251491   -0.93233432196952    8.92913479543860
C        -1.09441348767270   -0.12903302091797    7.02676141853311
F        -1.91377724454184   -1.17014044506463    6.73082670748040
C        -0.91645314068268    0.86683802220215    6.08550155740806
H        -1.42459945256465    0.81749324872674    5.13546946894842
C        -0.05613527096980    1.89961617322198    6.40011696285755
H         0.12471040707666    2.67145811051340    5.66646987436627
C         0.58366975297647    1.93455791059342    7.63713057860921
C         1.56400082895745    2.96041185980487    7.98271941937912
N         2.22470023643810    2.71016474308676    9.12205157861403
C         1.86208164420998    4.10567870393043    7.24536685156263
H         1.33299150900536    4.32141672521560    6.33205168377553
C         2.83767691430260    4.96924011454815    7.71137115429217
H         3.07994989155572    5.86263812387469    7.15477016551871
C         3.49723837962106    4.69122717860758    8.89585211609991
H         4.24955145191832    5.36525461237412    9.27018367292270
C         3.16425027032912    3.53598718540945    9.60253596044758
C         3.75638473987587    3.08950602858849   10.86233706122435
C         4.85042552588867    3.73415668205492   11.43566211433840
H         5.27726087325819    4.61065051340483   10.97104074100451
C         5.41553909330073    3.25641880911156   12.60082283184657
H         6.26155596944673    3.73864051054377   13.06430151863623
C         4.86852708318120    2.11631481893812   13.15712630963626
F         5.41651062914079    1.61446026047811   14.29340105521191
C         3.78023215907408    1.46746010820203   12.60469294969409
H         3.42976465078874    0.57681143409898   13.10445087149289
C         3.16658717808251    1.93603637419226   11.44541223127950
C         0.47137541333901    0.67652864703124   13.43711688620017
H        -0.24366971058863    0.14054439397170   14.06559185361935
H         1.43845429878707    0.66874711748943   13.94191786000880
C         0.04262683146507    2.13004035179152   13.21609865441337
H         0.54185849915439    2.50574071014028   12.30637366334885
H        -1.03292968875360    2.18478421588479   13.04566258997092
C         0.41674751520385    3.01552681748162   14.39682988854225
H         0.08429416417657    4.03700872247965   14.22889825071397
H         1.49546126121856    3.02583762892636   14.53477673897688
H        -0.04526901813878    2.65066390846766   15.31232136861861
C        -0.96287203759084   -1.00068505188895   11.63079356775089
H        -0.87424847539232   -1.73766575175008   10.82931843966269
H        -1.16723403910055   -1.54797214710207   12.55656906336848
C        -2.08971437238737   -0.01919603604991   11.32007258065447
H        -2.35515518126151    0.52831412442741   12.22603428216268
H        -1.73465907233205    0.70705111743177   10.58281542142872
C        -3.32675072691348   -0.73076745362563   10.78534087670246
H        -3.10766597046257   -1.22920246694721    9.84411293743893
H        -4.12914084723991   -0.01800250927924   10.61160600151987
H        -3.67828175003022   -1.47672950728842   11.49581078323825
C         1.76027489693778   -1.63162347970442   12.09635091244278
H         2.53778974621957   -1.37045873565938   12.81609403404597
H         1.19097489672822   -2.47330266336444   12.49838384796092
C         2.40430406271925   -1.98576168990953   10.75396741054061
H         1.64139344850298   -2.36925274896374   10.07298570372165
H         2.80610017828450   -1.05727944741706   10.31092440758196
C         3.51934792036343   -3.01089926906301   10.90251240611948
H         3.95667916149224   -3.24134672478848    9.93451482168196
H         3.13631243293357   -3.93372149988647   11.33412105531117
H         4.30460434639668   -2.62870920606229   11.55079225222813

