74
CSD_code = BEHZOE | q = 0 | S = 0 | Stoichiometry = C25H43IrO3P2 | MND = 5
Ir        1.26554450531887    1.57897796152757    3.40771107335166
P        -0.79641012788685    1.84390450796606    4.48239742148734
P         3.50630614351821    1.59334650865309    2.71667059395759
O         0.51035412120344    1.95663818117458    1.58128458616624
O         0.70103303348443   -0.05864080859645    2.21708083804644
O        -0.12558557723870    0.33404525131734    0.16473295038876
C         1.94756823104696    2.81335442200757    4.88685420353173
C         1.12508231181296    3.14253056097439    5.97829612622055
C         1.66270104190764    3.65588758242534    7.15205836972215
C         3.02235339801668    3.87614248455033    7.26434169589088
C         3.84575031792951    3.61252180490107    6.18505057261920
C         3.32099500784712    3.09561080596879    5.00861121807607
C         4.22461463472050    2.89160356231715    3.82378301198831
C        -0.36934451961991    3.01081717348394    5.85857288770849
C        -2.24937879976851    2.70472495698596    3.64099566578842
C        -3.33216646635124    3.19337723857584    4.60396656825759
C        -2.86407105004714    1.77521103521483    2.59548576719386
C        -1.62412408881347    3.90423112706304    2.92025422353804
C        -1.28972225302336    0.26031294556350    5.39043454208336
C        -0.02425886292972   -0.13169017894047    6.16155185787305
C        -2.46462780295289    0.39514525130625    6.35585865196164
C        -1.58058448832729   -0.83927014654624    4.36744243209883
C         4.37307634843896    0.00975464172821    3.28300922942709
C         4.05909813237259   -0.08718641658432    4.78010244617883
C         5.88599375313030   -0.01984431518404    3.08294006742919
C         3.72894001054017   -1.18446636050600    2.57538451095273
C         4.05198873607003    2.15558737437791    0.99975054983462
C         3.18114006434700    3.37591029061442    0.68149076679792
C         5.52505688917313    2.55712458985939    0.91093020176659
C         3.74121010873947    1.05501126404984   -0.01356887973459
C         0.32255093217620    0.68313884257137    1.22887277817530
H         1.01028460941436    3.88799472145606    7.98304980626406
H         3.43637840458497    4.26763500781607    8.18167668659531
H         4.90653798186682    3.81128005688005    6.25776763563783
H         5.24811964118664    2.66148693180742    4.12798521695538
H         4.24849706560789    3.82824914353781    3.25945386743412
H        -0.76831562118651    3.99748848092472    5.60825611864452
H        -0.82008656283967    2.70912063333383    6.80645165585432
H        -4.04925902239175    3.79501060592415    4.04655569894390
H        -2.92601481638207    3.81504148438623    5.39808956134372
H        -3.87555931851141    2.36885077743222    5.05467248486381
H        -3.51567416563041    2.34558521630415    1.93516421036367
H        -3.46266725339308    0.99454198967028    3.05846322784747
H        -2.09299828261801    1.31332500794247    1.98296024039189
H        -2.39111617980408    4.44106741205837    2.36465379075895
H        -0.86633807335064    3.56372520040340    2.21775648244454
H        -1.16060649418012    4.60267740372963    3.61421816772497
H        -0.17225141165047   -1.08459522757079    6.66821014917722
H         0.25144160319039    0.61079202553148    6.90854046325300
H         0.80762454369624   -0.25073215036559    5.46361303281332
H        -2.51819726204964   -0.49690739625542    6.97957072164938
H        -3.40582333573914    0.47454726975029    5.81869867010766
H        -2.36445926559287    1.25556251458380    7.01393428431834
H        -1.57848027893521   -1.81108617413488    4.85995179647188
H        -0.82414651587937   -0.85201410808691    3.58474339293589
H        -2.55149136110108   -0.70698275245542    3.89968726474566
H         4.38353155013424   -1.05148261337855    5.16938947345912
H         2.98259112640371   -0.00138102830963    4.94792060201834
H         4.55533934338278    0.69368508815466    5.35277932099410
H         6.30107849457668   -0.86820704510312    3.62683374939326
H         6.36640787798958    0.88204717910973    3.45666707832308
H         6.14229025542181   -0.14732614052911    2.03462661150152
H         3.99238025827529   -2.10809345373484    3.08976843216731
H         4.06669571708235   -1.26966208929699    1.54679424705765
H         2.64429861277445   -1.09422436129763    2.56486226646249
H         3.39622380586010    3.72741216553320   -0.32621044514769
H         3.36562971266501    4.19847108830055    1.36987163996840
H         2.12665367241730    3.11465791443900    0.73448741772721
H         5.71208686209468    2.97760526210700   -0.07661964505541
H         6.18982219713887    1.70893843338539    1.03772373453719
H         5.78324111717014    3.31473906425001    1.64690778463186
H         3.81283930895045    1.45307822506211   -1.02468543596505
H         2.73004720551473    0.67638605408368    0.12328670760143
H         4.44306056911215    0.22828004362830    0.06872490415938

