79
CSD_code = BEJFOM | q = 0 | S = 0 | Stoichiometry = C38H37AsClNPd | MND = 4
Pd       10.39266644486507    5.01332093830310    3.65904132757030
As        9.52738781379119    5.69993719043386    5.67906446130002
Cl        8.29052525172087    4.04611428999381    3.28087107378884
N        11.25167456811523    4.33705721581765    1.83825526870959
C        12.14259586583455    5.94342240299380    3.79079423892002
C        12.43621546349651    7.14691568774032    4.45607730193810
C        13.67437865236443    7.71754616581002    4.35192512509588
C        14.69296090980373    7.10349624859231    3.59502637997939
C        15.98333572102195    7.66583628669531    3.51148108394469
C        16.96875901392921    7.06269778162659    2.78327597360017
C        16.70291858523041    5.86200084904680    2.10902656111853
C        15.46150910765721    5.29338244167862    2.16407849450858
C        14.41448939494225    5.89410432037280    2.89857073589783
C        13.10727058738104    5.35714074222073    2.99264704113602
C        12.65637418746542    4.11126473749267    2.25690628659496
C        12.75227202051577    2.92435976878737    3.22619782564454
C        10.65458164238298    3.13297730828097    1.26450836820167
C        11.17479273984026    5.40962726497386    0.84533113030844
C         8.34966074515806    4.34674774627439    6.56182083473549
C         9.23937979741452    3.12404549056545    6.77085107301284
C         7.68515887397076    4.90770083512813    7.77143844747816
C         8.26934284286896    4.79879704972984    9.01311371422689
C         7.66089200609691    5.32038589460550   10.16187672460786
C         6.45941197639869    5.96186553591060   10.07416633585240
C         5.82426829361610    6.11677830554533    8.82424338319984
C         6.43523364166742    5.59026584135199    7.65226276203108
C         5.77766482650865    5.79334576886011    6.41738036987498
C         4.59050263604625    6.46879921730309    6.34868437330853
C         3.99014608384790    6.97907056313528    7.50783559703398
C         4.59682701931886    6.80436014354733    8.71863079517605
C        10.78073483757063    6.04308855014569    7.12885716377204
C        10.58002863573459    6.92829428614608    8.17775402734214
C        11.53234937367631    7.05026254437922    9.17653808143350
C        12.68767915426308    6.28883262749343    9.13650711391727
C        12.89829957139227    5.40460024202932    8.09018466385204
C        11.94850245628059    5.28644410220500    7.09305328961273
C         8.54283952681485    7.33379946458994    5.33358019535750
C         7.82162210727044    8.08611040565073    6.25393490496762
C         7.14364598576309    9.22150743119284    5.84384601084607
C         7.18285380544401    9.61883019208988    4.51791910745382
C         7.90684243580347    8.88162582021121    3.59482750802375
C         8.58244071020020    7.74561625090745    4.00241767210974
H        11.66525523782647    7.63485646277750    5.05502530916186
H        13.89482247991700    8.64812494488076    4.85712760087147
H        16.17715480287982    8.58759000454734    4.04209992537188
H        17.95484446783639    7.49961201136539    2.72425509698542
H        17.49158239302390    5.38514104230698    1.54475512421091
H        15.28620011459217    4.36177231504251    1.64701719021295
H        13.26572943072502    3.90958482472948    1.36191925303489
H        12.66585044440582    1.96772758604696    2.71577341388968
H        11.95167089354164    3.01116441398202    3.98228145914933
H        13.71359709446766    2.95617932664113    3.73553283852264
H        10.53465211775056    2.36100286106684    2.02465014756264
H        11.26891574023399    2.74664255058860    0.43919880499866
H         9.66121571234612    3.37188106466226    0.88350396025408
H        11.68033918372580    6.30639652175750    1.21016725789825
H        10.12486742334540    5.64554785064936    0.65080297770536
H        11.64711141508271    5.10309919716173   -0.09922684313017
H         7.60916321860446    4.08040240160320    5.80408454381825
H         9.60661594601769    2.80262541784940    5.78619314807877
H         8.67605134948326    2.30476666987730    7.21593265335940
H        10.10297442850842    3.34430403190235    7.40277152149263
H         9.21727946570640    4.29217481314354    9.12315661611528
H         8.15466633697701    5.20589229486824   11.11605485573343
H         5.97988633759771    6.36504790218474   10.95466846292162
H         6.21388292527306    5.42443915259254    5.49913156264204
H         4.10900485381639    6.61425994915608    5.39296253168750
H         3.05158349350520    7.50907289635199    7.43534256582915
H         4.14835732217385    7.19522490706595    9.62143995601552
H         9.68377323092028    7.53312990099885    8.21501152680180
H        11.37097877169713    7.74415759522231    9.98904789980898
H        13.42742570492397    6.38822769686083    9.91730000518744
H        13.80264253238094    4.81440767518120    8.05311524572385
H        12.10542259468848    4.61289105683570    6.24864627468382
H         7.76492354597326    7.77922003324381    7.29047596804738
H         6.57562192591727    9.79327949627442    6.56363931344896
H         6.64677390601635   10.50229624353882    4.20312611499364
H         7.93882492978270    9.19131963329841    2.55999287520898
H         9.15290291440388    7.14496130505766    3.27532001400604

