51
CSD_code = BEJFON | q = 1 | S = 0 | Stoichiometry = C20H25I2N3Rh(1+) | MND = 8
I        12.64474954309402    2.41080973126143   16.99592391536167
I        13.07628327104994    2.06212254029816   13.27066249471003
Rh       12.53457285661624    0.35331862814619   15.25867305035787
N        15.53955018997296   -0.48239892308672   14.99458195714789
N        14.71185961338092   -0.62984185670440   16.97582769252196
N        13.53528454840857    0.77384396636533   20.11593757167790
C        14.43615586549994   -0.21020322985816   15.70769341651271
C        15.74908771064118   -0.24352342834830   13.58971473742174
H        14.82586885560012   -0.40973644848268   13.03787781514404
H        16.51920095029902   -0.91887577562570   13.22290059531273
H        16.06540523988011    0.78656855969365   13.41875011460724
C        16.50521966927151   -1.02610075242269   15.79807379639932
H        17.46776183498209   -1.30645533176596   15.42314844132337
C        15.99843970661420   -1.11187710234075   17.04683268669414
H        16.42108142656106   -1.48436618077865   17.95637098040845
C        13.88192189542232   -0.47402134330152   18.10870570712402
C        14.22322934054666    0.54954295569066   18.98663435785905
H        15.09263867271705    1.16208519778455   18.80179633782556
C        13.86399025211993    1.93028317236448   20.90981440615546
H        14.93679961739887    1.97707020957059   21.09011542649468
H        13.34050805556484    1.90013577617304   21.86182739594340
H        13.56477306751017    2.83015286727978   20.36341313140445
C        12.45146652163012    0.02266213296728   20.38700732471606
H        11.91593360631608    0.24083671756912   21.29766571072777
C        12.04023943951847   -0.96316342285630   19.53324679958925
H        11.16347872707026   -1.54008378512158   19.77974957557443
C        12.72757060291784   -1.22842094132084   18.33191069907608
C        12.16936760991515   -2.18659202108237   17.32460574507853
H        11.35920367043229   -2.76624851304844   17.77389778875625
H        12.94463166059499   -2.88159029094663   16.99302409697365
C        11.64588400319946   -1.42156578619968   16.12963339276783
C        10.57982603226005   -0.45725401277424   16.14664722126237
C         9.75729824755335   -0.08303595729267   17.33429877445662
H        10.34012481764395    0.40740956720955   18.11294270966712
H         9.31573602977724   -0.98647635764040   17.75734175832329
H         8.95321980491433    0.58743789016864   17.04379802314264
C        10.34533317727380   -0.03906395771989   14.80663367274554
C         9.25846049752938    0.87593563241396   14.34138863622814
H         9.03023961258976    1.63616810972607   15.08566177350968
H         8.35299856822135    0.29937819306183   14.14386736051644
H         9.54387451489787    1.38165423627800   13.42105482111484
C        11.16887103174403   -0.83743611049578   13.93914855035064
C        11.03609002352962   -0.90765597252846   12.45818134917473
H        10.79299184124798    0.06242015426721   12.03092927164566
H        10.22356187444012   -1.59545054694683   12.21588106186815
H        11.94407425702235   -1.27359349246973   11.98452060850096
C        11.99058186062146   -1.68124931567055   14.75141189794507
C        12.82197331872316   -2.82013203404053   14.24976192257816
H        13.22360579388460   -2.61035647996486   13.26093828056653
H        12.19200703091640   -3.70809534716178   14.17003495813191
H        13.65287364046009   -3.05387152029418   14.91424018660189

