79
CSD_code = BEJFIG | q = 0 | S = 0 | Stoichiometry = C38H37ClNPPd | MND = 4
Pd        8.13287231952449    9.96404197879306    3.58350208972252
P         8.96053568173731    9.22842563174165    5.50655145659937
Cl       10.26920712039266   10.76930474171193    3.01239899109668
N         7.25463170524451   10.71623552631444    1.81477769331559
C         6.33620466942378    9.11326455036638    3.75416734724428
C         6.00727010613027    7.90679319014208    4.39937275482276
C         4.74655655637141    7.38517642226602    4.31086565390799
C         3.73685843821892    8.04670344519698    3.58374417216157
C         2.42378636832975    7.53698642136601    3.52013633772924
C         1.45124324677488    8.18341178939064    2.81203707953846
C         1.75495192262440    9.37456180010562    2.13702433795104
C         3.01861903208587    9.89369214388558    2.17562320416384
C         4.05180755615323    9.24983549617897    2.89298631328556
C         5.37967259566461    9.73735373779291    2.97456570309473
C         5.85732644080283   10.97244847037326    2.23904802681273
C         5.78752135282599   12.15924376728102    3.20925187304605
C         7.30267810312310    9.64853027466158    0.81342396135772
C         7.86901795127989   11.91130687502463    1.23956128550232
C        10.11449706953226   10.49808264747209    6.25006260395887
C         9.32525427298829   11.80659575919038    6.33422801433485
C        10.75876664844140   10.05690125371064    7.52716560505919
C        10.06695545420724   10.14458521636860    8.71253085518348
C        10.63147858470202    9.74291593566135    9.92905679020305
C        11.90434978910610    9.25244053752011    9.96482897242221
C        12.65788340625857    9.13797127899295    8.77836131759514
C        13.96780480389457    8.61443982080632    8.80850157886993
C        14.69611243969269    8.47370095179998    7.66254122062437
C        14.13735842921870    8.85418072233181    6.43474979965774
C        12.87338356069000    9.37125186295251    6.37219352166274
C        12.08848001287399    9.53697776156259    7.53627345835822
C         9.92926762048260    7.72292713892706    5.19370822912092
C         9.84757920989855    7.24512175145308    3.88485859928329
C        10.56210620928448    6.12588939144785    3.50131910478551
C        11.36756618621731    5.47348749337189    4.42104702990890
C        11.45178163393322    5.94078675030724    5.72191704413004
C        10.73610987690726    7.05871975348979    6.11298209264057
C         7.80226093925175    8.89622448314748    6.87232774173965
C         6.69970482318841    9.74593724377287    6.93577322488039
C         5.77206877685096    9.61663770752754    7.95068301365441
C         5.93264053561791    8.62699238386609    8.90798996031269
C         7.01390707412848    7.76546432895894    8.83672505226192
C         7.94828303262191    7.89547543367101    7.82327396672231
H         6.76470842799722    7.37733573660212    4.96974299359318
H         4.50273522418837    6.45462255314274    4.80536433145629
H         2.20214761488106    6.62077609377795    4.04959959554496
H         0.44708259443593    7.78759029235738    2.76882723287004
H         0.97791140369472    9.88409092139793    1.58520121518086
H         3.22176653388216   10.81939018564378    1.65800008649456
H         5.25061994233454   11.18831071130343    1.34549621110996
H         5.90338795595612   13.11478647978562    2.70270177341956
H         6.57847047334269   12.04797720967961    3.96920926842274
H         4.82221909936049   12.15216561398177    3.71196298749559
H         6.77237029106532    8.76240845852211    1.17107561251319
H         8.34691365825801    9.38679547197422    0.61826050004646
H         6.83990275393989    9.97452412413170   -0.12938128016497
H         8.01503704637161   12.67622428507939    2.00216895876447
H         7.25089785950144   12.31464358688896    0.42540170667086
H         8.85201928752567   11.65549762356718    0.84390428117229
H        10.86399111103170   10.63909421280815    5.46620595009839
H         8.92588158756266   12.03308101592144    5.33513133191456
H         9.98456789357515   12.61942088461474    6.63324277739420
H         8.49784362484052   11.75330150764996    7.03912021003839
H         9.05978602289012   10.53219166087005    8.72300787802761
H        10.04719831197963    9.82744696363738   10.83366773741188
H        12.35295553991295    8.94106452895566   10.89729251011481
H        14.38129036244917    8.32257510014762    9.76378510331674
H        15.69766747412214    8.07029740988435    7.69344917728909
H        14.71361518154084    8.73556638463340    5.52914845252850
H        12.47845949549935    9.64012641920721    5.40540667692503
H         9.21872334592783    7.77827404638694    3.15879639687559
H        10.49855139382538    5.76410215760238    2.48553010684523
H        11.93326433562081    4.60317014435747    4.12262830602310
H        12.08457109231691    5.43746636053484    6.43831928605650
H        10.82722186542597    7.41822338173053    7.12612905307962
H         6.56907275399277   10.49329736673443    6.15809824655831
H         4.91994779574081   10.27910169806617    7.99351746626341
H         5.20823318630186    8.52038503771795    9.70188466024416
H         7.13144927928844    6.98463749476752    9.57396027734410
H         8.77735662248436    7.20741300515256    7.76990584234166

