51
CSD_code = BEJFIH | q = 1 | S = 0 | Stoichiometry = C20H26IN3Rh(1+) | MND = 8
I         2.24203408169762    1.67312091705163    3.22227787503386
Rh        2.70597606336065   -0.95662859554793    3.30107069261005
N        -0.30622386382387   -1.08033839625541    4.14608357092978
N         1.14173964975124   -0.96219009014466    5.73875020151150
N         4.01492663756158   -0.15635295558541    7.84300724724988
C         1.01078217239866   -1.07711564431323    4.38555174519300
C        -0.92563492325370   -1.06007778069887    2.84893456912143
H        -0.17170490381615   -0.79899002673387    2.10574513702322
H        -1.71160397497862   -0.30550020276261    2.83229166147672
H        -1.36110234353501   -2.03114130540591    2.60806107402736
C        -0.99714677395813   -0.99731972739293    5.32934922912259
H        -2.06726682282627   -0.99317685287680    5.36172296324031
C        -0.09495778772299   -0.91998500546696    6.33330756972327
H        -0.24196919813162   -0.83503403680367    7.38894688446460
C         2.42457358978060   -0.72684182150143    6.20212418970073
C         3.39217603169821   -0.69957144242043    5.15494303758555
C         4.68735948355469   -0.35761964571927    5.57317318957229
H         5.48795064960322   -0.25784726616563    4.85560991371395
C         4.96536309775736   -0.10221547143611    6.89307712614775
H         5.95881729684117    0.16491038866085    7.21926376794811
C         4.35987106692619    0.10482799878665    9.22251658698494
H         3.48308227671977    0.43588811132575    9.77503438648463
H         5.12223632987663    0.88005180702345    9.27757560499358
H         4.74938995589234   -0.80077276907308    9.69272642865947
C         2.74870866896276   -0.45944476136433    7.50900813425983
H         2.01529213576244   -0.46461649630557    8.30072552418057
C         3.43032767066482   -4.22262237233296    3.18365584032347
H         4.09695449238816   -4.22902612097157    4.04317508785653
H         3.81103759574812   -4.94083536321466    2.45504231493682
H         2.44601007658529   -4.55849075788061    3.50279675411897
C         3.37004603394416   -2.87079356631594    2.54718977803032
C         4.48963755541850   -1.97019522740620    2.40569562866617
C         5.87277262043666   -2.23350478863368    2.91109233263090
H         6.47620437671085   -1.32892937467238    2.91501107479129
H         6.35323028503481   -2.95005516455446    2.24258703753355
H         5.86690189050236   -2.66339333730318    3.91109056463608
C         4.08629468869399   -0.92322972014216    1.54867066773043
C         4.95366708582474    0.15861874601237    0.99270382129666
H         4.37688990614972    1.05043267040420    0.75960657780464
H         5.41396491734690   -0.19685786928523    0.06907727645672
H         5.74620418805712    0.43458798822397    1.68456227453572
C         2.75067228120015   -1.23341142168462    1.04293388729888
C         2.10156910289777   -0.48757475409632   -0.07843946170709
H         1.07802827784535   -0.81646532131240   -0.24189992856857
H         2.66723712403336   -0.66260589889108   -0.99468246320548
H         2.09412212431995    0.58549471997118    0.10529663882088
C         2.34090476928484   -2.45015394592772    1.61396599398249
C         1.18089322274412   -3.30694661303936    1.21589294060887
H         0.68311391615501   -3.74282081571383    2.08012630238636
H         1.55537073584343   -4.12785428211199    0.60189768661147
H         0.45257646606812   -2.75488633803540    0.62817306149846

