38
CSD_code = BEJGOM | q = 1 | S = 0 | Stoichiometry = C17H16HgN3O(1+) | MND = 4
Hg        0.26383727116321    3.58651592667084    1.45108499899191
C         2.14543191897600    4.59538082153637    0.95055469727413
C        -2.26115969541404    1.28850524800591    0.72841595227121
C        -2.95451761934121    0.30173779363704    0.03921312678542
C        -2.43769086694791   -0.17345245351980   -1.15391335265714
C        -1.24388484169534    0.35314612097925   -1.62033464644725
C        -0.62226450204416    1.33311569753763   -0.86866943757865
C        -2.82562374790674    1.81981812556769    2.05148832086071
C        -3.12694090431351    3.31862902501947    1.89106647502368
C        -4.45311729404819    3.71359250700727    1.73165864024517
C        -4.75370042247028    5.05858639586967    1.60507401513745
C        -3.71902205540558    5.97881742964290    1.64520119839243
C        -2.42833908525403    5.49956322208355    1.76912149733288
C        -1.83310434352347    1.48412872501891    3.17667219769221
C        -2.14867919873072    0.44704606020544    4.05129394473200
C        -1.27764572404051    0.13307210511588    5.07993394644885
C        -0.11010725939132    0.86688039368107    5.21133228171500
C         0.14306617899854    1.85624014257773    4.27974599123164
N        -1.11386574325787    1.79416970014391    0.27927226050196
N        -2.13382233016330    4.20608431450667    1.87844218906603
N        -0.68683789083844    2.15429109318668    3.28268145012294
O        -4.03105332203728    1.13123236751615    2.28048588627582
H         2.45006845999645    5.25551566908032    1.76235331611512
H         2.02546526521578    5.19027744193936    0.04528848466298
H         2.93500163725880    3.86287989923066    0.78346747180715
H        -3.87901488254886   -0.07835911774167    0.43940366237441
H        -2.95911992020665   -0.93989090963578   -1.70611443351907
H        -0.80230834633795    0.01514338265029   -2.54347212292557
H         0.31139105030384    1.77250692442334   -1.19557961358391
H        -5.23906054940053    2.97652051101380    1.68530578150964
H        -5.77667574991778    5.37748692397462    1.47820947066913
H        -3.90313715486025    7.03753614304646    1.56612558368289
H        -1.58596822312211    6.17937037923010    1.78528019402136
H        -3.05411906138577   -0.12307461887300    3.91641480300329
H        -1.50959708559656   -0.66964711628694    5.76263274342539
H         0.59371654138334    0.66942614119456    6.00296458344262
H         1.05168650123015    2.44267743026508    4.33047776219498
H        -4.42498700432651    1.44603015449834    3.10382067970016

