122
CSD_code = BEJJUX | q = 1 | S = 0 | Stoichiometry = C40H75BBrN2P2Pt(1+) | MND = 4
Pt       12.09492624842154    4.03105545778910    5.08109431718446
P        13.75238459272638    2.71363123639046    4.05012292262467
P        10.27763455228734    4.91298838385795    6.28268469414002
Br       13.72675848793299    3.74131102988213    8.03970213486896
B        13.40810722145953    4.77310902311416    6.45501803993051
C        15.46645781697411    2.70737914355024    4.80767056605626
H        15.26148801587885    2.75404766029189    5.88542837361354
C        16.23561873302936    3.97609368447219    4.43769269846341
H        15.58679974851708    4.84443102543432    4.55365725997076
H        16.55801048786635    3.92677462872998    3.39626371909171
C        17.47299894477867    4.11586372411955    5.32078218829167
H        18.01286852773030    5.02886646451823    5.06158214458951
H        17.17116149710598    4.18642177594876    6.36805686259569
C        18.37870672230618    2.90323421916495    5.13516460480861
H        18.73446542730872    2.86857041466852    4.10279357127377
H        19.25063673475914    2.98630557270567    5.78464898770609
C        17.61585623719510    1.62297151650364    5.45708690261700
H        17.32526371416138    1.63134265631331    6.51000138918438
H        18.26011307886996    0.75735749423490    5.29587883606122
C        16.36122392109031    1.48536501879783    4.59093849554662
H        15.85299585269056    0.56708581699621    4.88444444671359
H        16.65395461666299    1.39856154672669    3.54438426008314
C        13.85671379723154    3.00850364053732    2.21381113059837
H        12.88840732981192    2.64200224628134    1.84641095250439
C        13.90993215923759    4.50221437795336    1.89030449325122
H        13.11289796151166    5.02211169822896    2.43502147873945
H        14.86253529201185    4.92729510728518    2.20557997569316
C        13.74578338398629    4.71522544636322    0.38752084781172
H        12.76427026050112    4.35361060326317    0.06998424260065
H        13.80135194579092    5.78024299564170    0.15553980834449
C        14.82916195511692    3.95794848009384   -0.37588641360675
H        15.80807704421619    4.36179742135104   -0.10994958272333
H        14.69263795583898    4.09817048997356   -1.44895978818028
C        14.78532811435465    2.47009761556752   -0.03827278016316
H        15.57829869645871    1.94563158826595   -0.57317362244858
H        13.83095446072285    2.04914526977634   -0.36501845107654
C        14.95234707511545    2.25423491289033    1.46569423415442
H        15.93388018217611    2.62424772070734    1.76229904647419
H        14.90391933154084    1.18723574544096    1.69269749715453
C        13.24782642038420    0.92956787055041    4.20105422706180
H        14.09939554602892    0.30950943275371    3.90173401686657
C        12.05623252527829    0.52403720106202    3.33493251635447
H        11.18637265055068    1.13515548535189    3.58557079818076
H        12.28285400866342    0.66692304669480    2.27628624647160
C        11.71825175411875   -0.94694736358376    3.57142583896000
H        10.87659792765542   -1.23456709147413    2.93834698265714
H        12.57305112180045   -1.56541311134899    3.28910218935642
C        11.37473772013249   -1.18849404174365    5.03648001065264
H        11.14851492348904   -2.24323859266638    5.19688702987645
H        10.48173641154840   -0.61455053302566    5.29207528881939
C        12.53666371960631   -0.76618581645936    5.93002306812453
H        13.39781124368034   -1.40625787058671    5.72536962232557
H        12.27165775443215   -0.89677082986316    6.98053321320616
C        12.92237040451427    0.68772235685220    5.67767925023694
H        13.77534221413716    0.94768460501332    6.30820306025668
H        12.09042151976275    1.34685893175789    5.95762083938232
C         9.30534576139174    3.48949259036701    6.97703543542175
H         8.36799713599147    3.88763232670710    7.38477588121704
C        10.10190178416709    2.80085780281912    8.08923531146936
H        11.02545632752315    2.39345363099497    7.66952800140894
H        10.38292128565051    3.50236353475517    8.87399433917706
C         9.28544368297997    1.66799673017123    8.70410419900202
H         9.86399254440711    1.19330988422372    9.49733403892119
H         8.37590612969210    2.07567092190467    9.15161617735216
C         8.91546947122395    0.63942236570666    7.64253780469488
H         9.82763796418922    0.17346613638495    7.26626300055958
H         8.29765165815729   -0.14569822770768    8.08005184934903
C         8.16363614141210    1.30574552650065    6.49451081239174
H         7.20986608435964    1.69091425232333    6.86275318710902
H         7.94398385488479    0.57208159606967    5.71562909891040
C         8.97160593042940    2.45730727650096    5.89999769343873
H         9.90441105320153    2.06926776573733    5.47939982115204
H         8.39766556563486    2.91123032133646    5.08849170119720
C        10.54656017661002    5.99461683091659    7.78382997706802
H        11.36281336480151    5.48298954247637    8.31277520580759
C         9.39318402966029    6.14541096775094    8.77919724208549
H         8.58779534197101    6.73862687572398    8.34779710224126
H         8.98254905280157    5.17952021975547    9.07010941887828
C         9.91256874029899    6.85461995492822   10.03162473342865
H         9.09812496437094    6.96458738901474   10.74919480499842
H        10.68828618021147    6.24375102842980   10.49897381554477
C        10.48523103729925    8.22588466896653    9.68666503918235
H        10.87771709876455    8.69963133453311   10.58704762193003
H         9.69028051595374    8.86457969946836    9.29468872977318
C        11.59136469035823    8.09553293176249    8.64408644547495
H        11.96582578821986    9.08483257677467    8.37334279894082
H        12.42103467838739    7.52366803905112    9.06576573048407
C        11.05822981297848    7.38355271262294    7.40265156554748
H        11.84025435679648    7.29571550256858    6.64869404556790
H        10.24515849636958    7.97862928614931    6.98304206819485
C         9.09402738074169    5.74903601121688    5.11033566705069
H         8.72500470992410    4.92251377875388    4.48759636818918
C         9.84119852719518    6.71192456473083    4.18478472253740
H        10.18476570281620    7.58246642273450    4.74382705085005
H        10.72481675534162    6.21460748238349    3.76692424117085
C         8.91716447600221    7.17691679391828    3.06246918701483
H         9.44685231724309    7.87126257025909    2.40748391365725
H         8.60806065046503    6.31673076857088    2.46288370784267
C         7.67762373165035    7.85166934337395    3.64407584767904
H         7.97668693275733    8.75158907670938    4.18526144362253
H         7.00870635373958    8.15623614664833    2.83804493680941
C         6.94746365258861    6.90683369418475    4.59472210746802
H         6.58392003411517    6.03804224843687    4.04022966981799
H         6.08104598631762    7.41170923086900    5.02419800467562
C         7.87883109423338    6.44549652241973    5.71584595099503
H         7.34087104377954    5.77158012644485    6.38508451704157
H         8.19303374652827    7.32084540240337    6.28467681636164
N        10.72147740515701    3.50959622794133    3.38641823700862
C        10.28678962952501    3.64324273400607    2.33287503402865
C         9.73630529338317    3.78923613194312    1.02531797044657
H         8.64844088383941    3.73788837000103    1.07458188205210
H        10.09814158270331    2.98652226037802    0.38238193765300
H        10.03265318781125    4.75071732921913    0.60492192085865
N        14.07063340196425    5.97658223454500    6.29329766146233
C        13.89873647507046    6.81378025197210    5.11988653034472
H        13.15621219275111    6.36526009942213    4.45494217120786
H        14.84451634287927    6.92224930057723    4.58206552818308
H        13.56770618156008    7.81489426940920    5.40744286883935
C        15.02175837132657    6.57778302025613    7.21298187864482
H        15.15885627756387    5.96089799389590    8.09654850478730
H        14.66539054487059    7.56265626363123    7.52469407204774
H        15.98887244200809    6.70245280038626    6.71963026806651

