67
CSD_code = BEJLUY | q = 0 | S = 0 | Stoichiometry = C23H31BN7O4Re | MND = 7
Re        3.06810843772411   12.79107146951242    1.73419915564516
O         4.06974444352832   10.63215496084060    3.68690880989830
O         1.31354381014250   12.83552953912286    6.58265557592390
O         2.34068300598706   14.76665393509344    7.33513302944189
O         0.78306441176978   13.27634656917377    4.35800897226235
N         3.65792121665137   11.75218179866173   -0.05455177471009
N         2.83594426124717   11.71505942441065   -1.10524500953851
N         2.29504019325625   14.24697100279401    0.33672918764402
N         1.64246047723930   13.85197901974845   -0.75760312710792
N         1.18385511300543   11.81098613389908    1.35533903380302
N         0.69133233897553   11.74244765001214    0.11475505436390
N         5.85215781009285   14.21298195296084    2.02987095743723
C         1.81860671059849   12.95212404438503    5.30562741781623
C         1.13997281424737   14.05970525368332    7.27113121617292
C         2.76748090669563   15.20516336101691    6.05857933369979
C         2.92572918048438   14.01370415082901    5.08485767780924
C         2.61512619741345   14.46389523109117    3.67531394003791
C         1.34065253347037   14.04499201240046    3.39877787999849
C         3.41847073637219   11.04090208426230   -2.10662636387064
C         4.66508599232910   10.62914839975126   -1.68451288411173
C         4.76942521384285   11.10366275584693   -0.37863458960934
C         1.26006733775701   14.91671742785187   -1.47531076637974
C         1.68547592105069   16.05202143880863   -0.81849009216159
C         2.33603719851505   15.57139480947568    0.31679343950172
C        -0.44961886598252   11.03739795773603    0.11382638239992
C        -0.70391988857515   10.63205450995583    1.40584572305862
C         0.36083893470948   11.14206066185361    2.14839584379788
C         3.67976960100936   11.44135209540200    2.95019432806991
C         4.81408651172527   13.66753015299451    1.92415083961773
C         7.19216917042738   14.49876853813055    2.37964321181526
C         4.07467629819686   15.96212929595522    6.23194909047799
C         0.68364982016970   13.73322533889911    8.68131320030757
C         7.30017583533273   14.48969358191625    3.90845868351908
C         8.08645521073432   13.41246774160316    1.77296101626777
C         7.55435482792247   15.87585357383959    1.81709181144158
B         1.43906244389855   12.36256467946821   -1.06689837252321
H         2.19433222539058   11.95241540133326    5.04313268131171
H         0.85882703787838   12.20776581498211   -2.08690734337304
H         0.37993388566123   14.66807858602992    6.73656555077134
H         1.99178660194412   15.88330466079570    5.65378872590541
H         3.90851582842955   13.55965906168106    5.20755793863279
H         3.06258017934425   15.36102488136058    3.27922094090114
H         0.65064211988323   14.39658652245879    2.64603807548513
H         2.91747645930040   10.89759940153603   -3.04241301920182
H         5.39003838556274   10.06798917831459   -2.23673991414504
H         5.57182833023205   11.00666995236820    0.32721470427919
H         0.71902608818152   14.80207572976984   -2.39261127262108
H         1.55006769101011   17.07226385492899   -1.11361160148118
H         2.82870522470628   16.12799531941814    1.09110573905916
H        -0.99787635016703   10.87321381532580   -0.79186443547451
H        -1.53049870423740   10.05275353316101    1.76225005797215
H         0.54729847788914   11.05228040997312    3.20085680313489
H         3.92450302410179   16.80811809208059    6.89642944457435
H         4.42607061712707   16.31658984893137    5.26741369085576
H         4.81974569799569   15.30445609853323    6.67012091566844
H         1.45626399627997   13.14731758268918    9.16865336082191
H        -0.23454547887012   13.15735325589577    8.63819172973253
H         0.52431851228470   14.65436612764885    9.23243735555946
H         6.97843743309772   13.52616758881800    4.29531234660173
H         6.66812130027645   15.26259575254255    4.33833706097339
H         8.32880638945735   14.66882738518903    4.20994265976728
H         7.79942611750748   12.43865874447232    2.16133253389629
H         9.12697508591466   13.60257847757926    2.02271553837352
H         7.97968928790157   13.39764338037375    0.69119112980452
H         7.44535621097698   15.88036668134554    0.73535676330832
H         8.58248731490099   16.12296813724764    2.06710963612899
H         6.90047484805644   16.63852416983744    2.23343437055781

