25
CSD_code = BEJLEH | q = 0 | S = 0 | Stoichiometry = C10H10HgI2N2 | MND = 4
Hg        0.46144870482081    2.84894042832287    0.74582232811517
I         2.39952173453623    2.84901252588206    2.50675894093656
I        -0.38238629161264    2.84901193175463   -1.73325037788173
N        -1.09551530685836    4.58198513994969    1.76612484215514
C        -2.13518347132908    5.05426252409948    1.08374181765341
C        -2.98388668972336    6.02890625131200    1.57864679576137
C        -2.74471811744782    6.54068641023129    2.84369975742081
C        -1.66597245107076    6.04843325173978    3.56022759389795
C        -0.87265676966054    5.07279687545776    2.98228887753861
H        -2.29347440787430    4.63891068713859    0.09734896505432
H        -3.80958411975768    6.37821355561629    0.97943747857146
H        -3.38268342275550    7.30574871984288    3.26048474300518
H        -1.43575926670631    6.41347145174361    4.54846603195579
H        -0.02061232304286    4.67225960369814    3.51531937198347
N        -1.09552196577221    1.11602539543215    1.76613638286837
C        -2.13519101374430    0.64375449572291    1.08375224376656
C        -2.98389285753529   -0.33089442367964    1.57866206993016
C        -2.74472465627675   -0.84267043658927    2.84371286776936
C        -1.66596852910618   -0.35041986457220    3.56023518390501
C        -0.87266154564880    0.62521587134138    2.98229688310076
H        -2.29347481123443    1.05909210006211    0.09734382369603
H        -3.80955559583726   -0.68025650490321    0.97941806480706
H        -3.38271816516964   -1.60772147076692    3.26047513331268
H        -1.43571620068607   -0.71550655809205    4.54843916673874
H        -0.02061246052758    1.02574203918278    3.51531101396797

