69
CSD_code = BEJMUA | q = 0 | S = 0 | Stoichiometry = C29H34ClN2O2Rh | MND = 6
Rh        1.31334194808042    1.20025176574569    3.19100945286758
Cl        1.68324697096812   -0.89430296304093    3.96756769969230
O         6.49762644894508    2.13873909876200    2.68866240534567
O         5.84331138121241    1.91057177452824    5.64774333743906
N         4.20999422948235    1.80894039086415    2.58583633557637
N         3.73953489313564    1.63940947306417    4.72353209513216
C         3.18792199016546    1.60494694642389    3.47176406983653
C         5.43263261187495    1.95229335148700    3.22009889813598
C         5.10425112924187    1.83422009153220    4.69864868517687
C         4.08924326979349    1.96051617077083    1.17180223922646
C         3.77259957371175    0.86354791952761    0.36903056916124
C         3.68135447127898    1.05810271111454   -1.00061453350365
H         3.43483361305230    0.21699501575521   -1.63249776946045
C         3.91018566163593    2.29832838515501   -1.58026970471792
C         4.23335467737822    3.36655229299297   -0.75793726732794
H         4.41671005435944    4.33812749039451   -1.19331460977648
C         4.32817230760445    3.22021360061526    0.61867640199009
C         3.52283546855253   -0.48175438054227    0.96682912340777
H         4.31378168466834   -0.75223645953459    1.66450732594171
H         3.46177030609615   -1.24268270141622    0.19400493946022
H         2.57878108155241   -0.47500493445400    1.52467002360375
C         3.82495826637441    2.46376834418931   -3.06635792631687
H         4.69249786179069    2.00514235290245   -3.54074449136397
H         3.80065554896361    3.51484906996009   -3.34227580429588
H         2.93493579611916    1.97449950226614   -3.45760804699686
C         4.66677570470986    4.39759325889028    1.48157320761216
H         4.52046486135890    5.32523855229179    0.93427873919161
H         5.71037548144353    4.34408618095314    1.79158729299449
H         4.04910299420247    4.42068322378418    2.37960104487295
C         3.00091064227757    1.36888834740453    5.91768596097176
C         3.18415982316926    0.13814419444642    6.55879512018115
C         2.40345369175388   -0.14280899035251    7.66661015761115
H         2.52000733269686   -1.09668087156318    8.15978909963530
C         1.47003181889806    0.76283656453007    8.15534510392862
C         1.37059875419395    2.00203405574831    7.54783327655226
H         0.69205756643930    2.74298057268172    7.94745749821894
C         2.14083489458572    2.33288842498088    6.43833315027462
C         4.20810604638397   -0.84301092287648    6.08279699005623
H         4.11511419333861   -1.77857663829936    6.62686079491947
H         5.21021425873988   -0.44531297668374    6.24217286329150
H         4.08120017818364   -1.04978745376148    5.02169725436634
C         0.61710177003457    0.40111513234289    9.33254582450826
H         1.23888955445411    0.09423644233782   10.17195937605086
H        -0.03435813251465   -0.43465200188821    9.07953305641581
H         0.00036526821199    1.24078762007692    9.64285839251938
C         2.09408780782697    3.74190770678762    5.92285628166076
H         2.73715110210368    3.87979117884053    5.05772975933998
H         2.43896824051928    4.41457903642318    6.70869877640164
H         1.07706895270244    4.02870485255240    5.66486822246659
C         0.92274510254222    2.63754453907350    1.63693065756618
H         1.85403149803690    2.95450793585245    1.17464889711432
C         0.58912951111826    3.22137185186740    2.85390098610372
H         1.30074719858672    3.94229218526212    3.24646974720668
C        -0.82969378280229    3.43176320961924    3.34157455043930
H        -1.47986941448159    3.60066117161627    2.48220798535190
H        -0.86496130500267    4.34011211359756    3.94742864886250
C        -1.34568717345529    2.25603901644158    4.19115262505308
H        -1.05742871065667    2.41560003115876    5.23361905639349
H        -2.44018841719371    2.22195775168613    4.15989905884313
C        -0.80013717217724    0.91518918734081    3.76397681917750
H        -0.76665886085624    0.17932104860200    4.56709322108142
C        -0.68807972249927    0.47106777544574    2.47340642958879
H        -0.53284311467852   -0.59514362119604    2.31731549111476
C        -1.16971298402573    1.22670361511857    1.25925255606594
H        -2.01265882426879    1.86089649273874    1.53468554892917
H        -1.53247644784152    0.51145501998255    0.51848143239896
C        -0.04174823678073    2.06029222599623    0.62977797718831
H         0.53360343385421    1.42793931184866   -0.05228386585435
H        -0.46202662912253    2.87742933919598    0.03313148506614

