63
CSD_code = BEJNAG | q = 0 | S = 0 | Stoichiometry = C27H31FeIN2O | MND = 8
I         0.38728238169012    7.45570872313851   13.19193052760462
Fe        1.98518245385926    8.98769307523150   11.99886753308980
O         1.95889557608421    7.29713458447570    9.67863875784139
N         4.00767805687009    8.84001592610619   14.15615757067551
N         4.23289292552439    7.22413061197363   12.74306995254621
C         2.60447615575546   11.13381015788231   11.57822386539900
H         3.60768658090617   11.52600581691309   11.57252233582559
C         1.66374455875871   11.29696679345020   12.62366634058085
H         1.83809972422283   11.78685036059498   13.56460831867686
C         0.42929148691103   10.81410868837399   12.16368527994380
H        -0.49854779193538   10.82784806182728   12.71171221415890
C         0.58882129732810   10.35874436363289   10.83034319603647
H        -0.20545640990459   10.03507976065740   10.17844326684339
C         1.93093563104745   10.58643489529119   10.45712070797558
H         2.34124614519867   10.47014008084911    9.46647919051868
C         2.13089635156363    7.86572436472746   10.66243710653332
C         3.54792725309504    8.34189953549984   13.00080969181619
C         5.24559160188073    6.90628673536190   13.74640783272805
H         6.24001746193696    6.89399662085637   13.28707223871215
H         5.05676610530516    5.91979713113686   14.17704853762712
C         5.06836151225987    8.03482731960671   14.75878684927852
H         4.74736297413291    7.67413209960447   15.74104508755708
H         5.97254347099254    8.63538057844801   14.89488349772414
C         3.70595596155651   10.08734174708777   14.76314391070765
C         2.71889421550292   10.17721804340764   15.74276572136597
C         2.46865062030116   11.41604222518154   16.32300735144125
H         1.69200032846854   11.48812777839883   17.07095552224319
C         3.18766381726562   12.54513927752039   15.97056318698729
C         4.20066731726697   12.41834872133244   15.02716145300068
H         4.78601866136853   13.28672560998926   14.75925158287908
C         4.47803727338489   11.20412230872460   14.42274253520853
C         1.93655015003571    8.98924135054743   16.20251987669010
H         0.87736930869996    9.12873609668267   15.99515094739338
H         2.04811271043164    8.86583715802606   17.27913941788427
H         2.25313861648761    8.07680093862183   15.70915123380286
C         2.89617361345544   13.87923672514181   16.58638935187551
H         2.15447077656360   13.79044845483948   17.37576509712915
H         2.51657437463007   14.56721444708082   15.83109770049702
H         3.80342653453513   14.31313552544597   17.00391925190821
C         5.61293020034702   11.09980051467855   13.44687313918332
H         5.43746882466322   10.31409998540681   12.71638572115276
H         6.54052884787364   10.87501530876982   13.97678747961681
H         5.75620751949898   12.04331171849349   12.92473698975760
C         4.21471186644309    6.47220427406823   11.54106858704741
C         4.84116361065319    7.00078164190662   10.40654442783477
C         4.86093294708792    6.24903478625869    9.24531678702209
H         5.33016262422119    6.65621109965082    8.36097447908782
C         4.27817508845607    4.98958406971293    9.18921948023599
C         3.68207083899709    4.48080758798901   10.33197800700808
H         3.22308987284446    3.50321721027473   10.30178572649606
C         3.64619391621234    5.19878770877237   11.51907141025527
C         5.43740092150730    8.37544748278392   10.44161136310559
H         5.88549644779604    8.62234533001739    9.48308700756411
H         6.20528898224369    8.44965099096409   11.21136753412589
H         4.65646913654014    9.10589452035474   10.66359341722332
C         4.26787074431815    4.21148749727795    7.91007698519747
H         5.13335614726122    4.45505030644199    7.29813942429559
H         3.37132870650328    4.45801939143514    7.34092954281884
H         4.25870622178101    3.14184384345958    8.10527499382027
C         3.00645363080016    4.60023433105084   12.73258316932037
H         2.13242439869006    4.02041005086484   12.44800187239973
H         2.68847551706598    5.36661145799886   13.43248849760497
H         3.70529320465338    3.92951619774499   13.23481991717572

