69
CSD_code = BEJQIR | q = 0 | S = 0 | Stoichiometry = C25H37N2O4V | MND = 6
V         0.59056331315276    2.12246788716908   12.39312113160738
N        -1.81824459270037    3.35812876618053   14.11591188510187
N        -0.13942143729692    1.32315926415876   15.35331853036972
O         0.84850490071879    3.31907570353416   13.46059836789665
O        -0.94824682040503    1.51565350599150   12.28986516318642
O         0.89037487217364    2.74048226990635   11.02433253698986
O         1.61404473491477    0.84388729933911   12.60196046283197
C        -1.59741100176544    4.71618677264252   13.63626636754643
H        -2.41503829707968    5.39099501722916   13.96135211308699
H        -1.61306516934240    4.67084309561564   12.53707731376543
C        -0.28011112837864    5.29736338281535   14.07496086091954
C        -0.20152602622376    6.57812949245235   14.60018163312418
H        -1.11155703394467    7.15083832485832   14.71737387148861
C         1.01021233123650    7.14388889925748   14.96898022712094
C         2.17013397515213    6.39829231923780   14.79192944387518
H         3.12341928657803    6.83317935329949   15.05888628119210
C         2.13664696726990    5.11562933027668   14.27673098153522
C         0.89793504318608    4.54359659325209   13.92473015715277
C        -2.03302218384374    1.79396456791172   11.58694374888684
C        -2.12347059490572    1.37379461235397   10.24466716026067
C        -3.24425918111068    1.70343680309522    9.50488099141616
H        -3.30682613417796    1.38173565970606    8.47439326214687
C        -4.28855029331008    2.44254125808648   10.04888385341842
C        -4.19824541382167    2.83016406112251   11.37628644329040
H        -5.00957432397946    3.38992546563363   11.82208667616176
C        -3.09705482281900    2.51104050352420   12.15820685829493
C        -3.08794902623847    2.84819070140068   13.62787580645915
H        -3.31122822096103    1.92473268298205   14.17222902545140
H        -3.90842408433584    3.56266455873074   13.84095566192904
C        -1.70479061278277    3.23976750228097   15.55901142337296
H        -2.63834912690126    3.54260812937819   16.07162829423743
H        -0.91233486158111    3.91362679104100   15.89150671833319
C        -1.35944943021900    1.80662691352598   15.98184422748022
H        -1.28860806185464    1.77301375144301   17.08512770675449
H        -2.17698606731503    1.14399205786738   15.68886850687295
C         1.08289313166354    8.53288491839363   15.52990363840791
H         0.08797138825535    8.93878615821960   15.69282599842261
H         1.61503925156957    9.19005091301272   14.84267563610821
H         1.62124268942300    8.53635010248857   16.47659844701068
C         3.38055031041756    4.30645212800856   14.05950493394776
H         4.26062784529772    4.94497697244095   14.04810306986782
H         3.30281272577548    3.77280318734233   13.10807240873514
H         3.49813026574513    3.56609967311585   14.85316314943428
C        -0.99454295834747    0.57850464452731    9.65939954694828
H        -1.25940169650805    0.19316856903700    8.67741921222470
H        -0.73961136569813   -0.25560495855081   10.31889561790554
H        -0.10910475109042    1.21448234411715    9.57039223394961
C        -5.47691175812376    2.80672227515547    9.20945436253286
H        -5.19732190374861    3.55220391309960    8.46508260528170
H        -6.27524987581839    3.21717289824106    9.82243504309651
H        -5.85486084971216    1.93383633946833    8.68000261312202
C         1.03998379468318    1.75140573798879   16.07842991296457
H         1.09136970348252    1.30360575017381   17.08819412920399
H         1.04035213287552    2.83497711965624   16.18242022895241
H         1.92741879137168    1.45663475779803   15.51771598555002
C        -0.14740987042718   -0.11972361107213   15.21396656363982
H         0.76746172731525   -0.42937682829313   14.71066365165689
H        -0.99468758539469   -0.42189619681306   14.59901541409611
H        -0.20812944771163   -0.63901664150291   16.18754212628019
C         2.59135240091945    0.11338061329424   11.95564093269520
H         2.10079899207039   -0.47871192316682   11.15640175750281
C         3.28107118674731   -0.84794430755315   12.93387609910339
H         3.72763468444219   -0.28182883766333   13.75005572088482
H         4.05947386062483   -1.40790195970546   12.42258114613297
H         2.55775930670264   -1.54868980275699   13.34660450178051
C         3.60930630007546    1.06073259047316   11.30827192431111
H         3.06188883767543    1.81748819616266   10.74307440196580
H         4.27125519191301    0.51526391306034   10.64078506440864
H         4.20074606644453    1.55078805450158   12.08145822831997

