74
CSD_code = BEJQUE | q = 0 | S = 0 | Stoichiometry = C35H33Cl2N3Ti | MND = 6
Ti       22.07593493330211    2.38702468371695    1.16441320525248
Cl       21.58953241958683    0.28832083301036    0.42428910429640
Cl       24.06804636455846    2.16648598084360    0.15778031599549
N        20.47311429204832    3.18235204069422    0.68973260383062
N        21.36247807662205    1.67674700915230    2.83654148679025
N        22.75362863285833    3.77429891781775    2.29391467647929
C        19.29896059331258    2.51669532232831    0.88305920616944
C        18.22510111606998    2.75135394359973   -0.00322376071090
C        17.03768567437047    2.06988582459346    0.08209055461293
C        16.87064619175962    1.10187316589337    1.06479492478035
C        17.88494182772108    0.87551486565729    1.96555276133185
C        19.09926414934622    1.58015809297796    1.94198938459536
C        20.07948007796739    1.29868621669021    2.99205300533509
C        19.71576736605403    0.63645825066526    4.17258895790564
C        20.68592400744889    0.27019557276371    5.08870428318500
C        22.00648196247900    0.60089071371137    4.86047902686845
C        22.32289899272285    1.34489212979461    3.71811751760449
C        23.65493876772953    1.91347320642117    3.54213306197530
C        24.78222673351067    1.30172897643875    4.10438475561636
C        25.98528443535155    1.96434875198381    4.19636449144648
C        26.07223664348357    3.29291884093977    3.78464760033461
C        24.99116828376564    3.91771139852637    3.21328945109425
C        23.78129700018922    3.22868570326189    2.99647029157693
C        20.47575602580775    4.32807184099810   -0.13686454004976
C        19.91513427031504    5.52427811264095    0.33713015299075
C        19.97543529522003    6.65813386892837   -0.45642179048137
C        20.55077269206743    6.63260594406821   -1.71935980231327
C        21.04546014076674    5.42732036749223   -2.19754426228932
C        21.01356534289912    4.26927300723615   -1.43257960536536
C        19.21472530661184    5.56085198333211    1.66199621451053
C        20.63663161393981    7.88104539960685   -2.54408292396064
C        21.50773419737078    2.97137066278061   -2.00394423916997
C        22.54061495691916    5.16524759395332    2.39408085593440
C        21.95893094198990    5.65350285793395    3.57727205790649
C        21.69658850621919    7.00578659426948    3.70278465625483
C        21.99692123738912    7.90058644029039    2.68322565287146
C        22.59093282974051    7.40860082172474    1.53378855743373
C        22.87892410044589    6.05938578949276    1.37261307572608
C        21.61012262579526    4.70416635801121    4.68747472431778
C        21.67266066391491    9.35663350792900    2.83146955796604
C        23.60740031417900    5.60931960668957    0.14359067188665
H        18.37216592778653    3.47564910860260   -0.79228283681515
H        16.25000604197941    2.26909791609388   -0.62910840003893
H        15.96050505157745    0.52530104279585    1.11760547962165
H        17.74194457594160    0.09463591066351    2.69461733535095
H        18.68559331947892    0.40327760630795    4.37861050274060
H        20.40685829825038   -0.26543144599579    5.98378062320274
H        22.77623795065976    0.33408074079401    5.56552620894093
H        24.70652475186003    0.28077013828739    4.45098775500823
H        26.85112592383623    1.46434576950746    4.60144793758557
H        27.00271816646699    3.82965398161636    3.89614455373209
H        25.06256505950911    4.93812657363613    2.86477016218344
H        19.55698244638915    7.58111400815082   -0.08172446506557
H        21.46026454076100    5.38193117972587   -3.19491234050046
H        19.26145728237706    6.55857457232097    2.09013317122423
H        19.66611168632117    4.85398834590082    2.35646226840482
H        18.16597820692376    5.28700678761477    1.53392571703649
H        19.76543710642503    8.51208651839178   -2.38431001901247
H        20.71353603992135    7.64461541227154   -3.60237287626518
H        21.52041448018627    8.45368964285904   -2.26072239847132
H        21.40483076890874    2.97759077419240   -3.08809140875461
H        20.94396020511000    2.12220212048406   -1.60328781601180
H        22.56867590859651    2.82101828624937   -1.77298114302929
H        21.24464811070885    7.37316369145699    4.61379746800975
H        22.85243361391388    8.09016444427533    0.73662726888876
H        21.02883296626090    3.86330767899600    4.30159332320124
H        21.03007451402999    5.21023244730094    5.45536252638775
H        22.51406920985054    4.30103445048297    5.14652174764504
H        20.60021845490634    9.51661845758743    2.71607328306059
H        22.18802326345354    9.94808603402745    2.07921842157082
H        21.95729147531604    9.71644077969066    3.81833713025921
H        24.67643868587988    5.79482055516980    0.26164115421463
H        23.26474196330060    6.16246783455996   -0.72806976599673
H        23.47068439926333    4.54005743710995   -0.02601648884927

