87
CSD_code = BEJRAL | q = 0 | S = 0 | Stoichiometry = C39H41Cl2N3OZr | MND = 6
Zr        3.95236856570008    7.96069437451533    8.17414561228759
Cl        6.22563565242811    8.71028108270915    8.02491006127049
Cl        1.61647265383504    7.68673979128222    7.71431102340082
O         3.81521765210343    9.12933756222407    6.19743541331303
N         3.50351504173358    9.41927069024128    9.58438048130530
N         4.08180571324878    6.80543299189665    9.98230791381197
N         4.48797072717689    6.11230894575116    7.38083856937464
C         2.40666485414907    9.24265866703470   10.34992304827801
C         1.57060343120657   10.30529789860730   10.76660411250428
H         1.88362386777115   11.31665423120904   10.55345399660436
C         0.37792644896453   10.07269225381910   11.40196583888611
H        -0.25595880500789   10.90602523314863   11.66954730280343
C        -0.02824680678003    8.77158153845887   11.69084750132409
H        -0.99410613248938    8.58612811947303   12.13389527378057
C         0.84129757708993    7.73326357310026   11.45043303469294
H         0.55783611801835    6.72709872233754   11.72493351783404
C         2.08134869556234    7.93813028671662   10.83447453578161
C         3.11715629904840    6.91721288963655   10.92803463144372
C         3.17673619235576    6.16070656821497   12.10621668636295
H         2.40500861621442    6.27343245483045   12.84933401656210
C         4.25219693754931    5.32574839708135   12.33194770828162
H         4.31827232288169    4.75016451873549   13.24321151045395
C         5.24242399811075    5.23796936143184   11.37428615444002
H         6.07664489814892    4.57039558199583   11.51090171954586
C         5.13200957110182    5.97296315598632   10.18584576690722
C         6.08880594935860    5.68395065074332    9.12425407513645
C         7.38946292851774    5.28309148846976    9.45449842987348
H         7.75906172612190    5.48932078324895   10.44887805646359
C         8.20929093358361    4.65686435258909    8.54519605743402
H         9.22013404326136    4.39000732326436    8.81059010291909
C         7.69245674105804    4.31633758863341    7.29672560514757
H         8.28559322694648    3.72886988405935    6.61046226967815
C         6.43950817689062    4.73140568217802    6.92639330699192
H         6.03632644544759    4.44894700673609    5.96525350562298
C         5.64772809663805    5.54533609292339    7.77164142726297
C         4.03098432429019   10.70949287340756    9.37368280461641
C         5.19267124403382   11.05429204456556   10.08774045564911
C         5.79395126575678   12.27710230567660    9.85652113328885
H         6.69230474783406   12.53623661477350   10.39843753714094
C         5.26413888610969   13.18600323775078    8.94649636250263
C         4.09419748778087   12.85340064564937    8.28432290079693
H         3.65212168108057   13.56096454896012    7.59512551341234
C         3.46017856868711   11.63134876250768    8.48583814740353
C         5.73267391148120   10.08681577863257   11.09936214053760
H         6.01877253862378    9.15148232109667   10.61081321389392
H         4.96841185507386    9.85402995307210   11.84314148427213
H         6.60297451439142   10.50170064190044   11.60109023865272
C         5.94372661257104   14.50195012081850    8.71364610802481
H         5.96027721018347   15.08786250518921    9.63195172773142
H         5.43049411151811   15.07621813623430    7.94647584731261
H         6.97498968672038   14.34485006262936    8.40125450138970
C         2.16104928614912   11.33988960812770    7.78559368540459
H         1.34128903736576   11.84656475276884    8.29765658220775
H         1.93756678726815   10.27055435486360    7.78841561922498
H         2.18124085372381   11.71534108021691    6.76329130386449
C         3.93009368778326    5.82059625942054    6.11932904944626
C         4.51144677928592    6.25204791676739    4.91362824759228
C         3.86225670078012    5.97919796216997    3.71546724554079
H         4.31841021452304    6.30737061418888    2.79070394752773
C         2.65783311696351    5.29453039112661    3.67327311294525
C         2.10873347185130    4.85270463665127    4.87012054441811
H         1.18074068288282    4.29914396288977    4.85524754734519
C         2.72757627230562    5.09152158758363    6.08598940466477
C         5.82653479099691    6.98012844754231    4.88533616803867
H         6.04955358514993    7.44475954540959    5.84679168985790
H         5.82858002934309    7.73568590350733    4.10057945911699
H         6.63801585565371    6.28534553137101    4.66387845446939
C         1.96387188050174    5.01716885824861    2.37353929475199
H         1.90743570850183    3.94380477337390    2.19570868147676
H         2.49302482722759    5.47712681570081    1.54271774255947
H         0.94597082665222    5.40349424269855    2.39697308771895
C         2.13071206414465    4.53955394256030    7.34947467782528
H         1.08069202087793    4.81723769942883    7.41987508765965
H         2.65470425800428    4.92369129095237    8.22871476850126
H         2.19909544850347    3.45087720085473    7.34684131993800
C         4.71952632576252   10.17950748440191    5.77602394595447
H         5.69279806345672    9.72858158635495    5.55476925927356
H         4.84640375050818   10.89080117025881    6.59894388033177
C         4.11614529660656   10.81515851461231    4.52563818166243
H         4.88501336129001   11.17861216025583    3.84810320960043
H         3.46439535747258   11.64834037845555    4.78939848311712
C         3.29819702274445    9.66647461246879    3.94515943179736
H         2.49442177710098    9.99926457134304    3.29323910199483
H         3.93705620167980    8.97758890033890    3.39375070332443
C         2.76881452639273    9.00382430602470    5.20967327613075
H         1.86971268052573    9.51912147509256    5.56956949153411
H         2.53682644589094    7.94401716585600    5.07960592878988

