91
CSD_code = BEJSOA | q = 1 | S = 0 | Stoichiometry = C30H51BN6OOsP(1+) | MND = 7
Os       10.65519337836563   11.60409833781818   17.30841009018675
P         9.98884310735820   12.67734892549718   19.46422194341937
N        10.54907105427731   13.42666902474698   16.28135024151977
N        11.44055076136550   13.69559545016970   15.32131737197213
N        12.72405261818237   12.02095481512911   17.43444359334498
N        13.33362093261589   12.49671832372506   16.33932224440933
N        11.12932728546835   10.76728566719625   15.46253268973403
N        11.95638410357587   11.39562608187189   14.62263097663798
O         8.52498898639556   11.47235298432873   16.65922653248098
B        12.59555443949998   12.73086354511557   15.01900681192079
H        13.30556822923477   13.14874452883391   14.17796657669424
C        11.42241027058367    9.74014994173594   18.24961835745525
H        11.73577983543488    9.86622516838857   19.27874560345534
H        12.17238879680368    9.28486869534367   17.60546437361965
C        10.09982548210579    9.57802948073619   17.95755616453523
C         9.03106096649641    8.83152488288760   17.86868126203411
H         8.10588476905682    9.20522623282800   17.44997024256122
C         8.95798704057305    7.38179503120198   18.29764091468805
H         8.06107808038907    7.27401066897767   18.92002917756011
C         8.78546972343652    6.49923379954168   17.05461835451077
H         7.91569144187872    6.82788251564662   16.48019431967536
H         9.66946656872107    6.60082438028268   16.41972857479619
C         8.61777772539243    5.03689472147071   17.45681782442863
H         8.51104364683007    4.42089851508925   16.56230035075796
H         7.70719397487656    4.92606193373805   18.04964389219676
C         9.81619057543466    4.56745623677380   18.27474681754280
H         9.67400642704137    3.52937573081237   18.57776941398818
H        10.71737316007377    4.61590398650190   17.65932322264901
C         9.99553403558542    5.44868292996518   19.50661276908881
H        10.86803428893277    5.12151323107005   20.07430086725678
H         9.12095600945779    5.35058224162884   20.15353527669566
C        10.16665115114418    6.91049024376311   19.10073905786031
H        11.06860350027629    7.01421658726638   18.49535888675543
H        10.28330643122742    7.53038263437840   19.99170118554903
C         7.79021652906440   11.58401159496888   15.69099169848738
C         8.20744378273295   12.11863159344109   14.35401216646870
H         7.80203449577277   11.50050972513719   13.55668425893585
H         9.28743899171365   12.17181921722349   14.25778660818374
H         7.79958539182198   13.12207603207004   14.23112784623682
C         6.34774339199665   11.17647134253398   15.78036284856772
H         6.06566321170721   10.96364054223736   16.80753729520991
H         6.19430996521383   10.28002727954558   15.18068559186106
H         5.70559365701005   11.95321434689759   15.37271785071132
C         9.65458617586479   14.41070596261841   16.27673049920724
H         8.82514184738371   14.42379772644764   16.95603194371348
C         9.97812323887477   15.34191028233892   15.29451796619181
H         9.45488083649319   16.24249383958459   15.05121196743638
C        11.12618516460675   14.84514074349138   14.71241690192758
H        11.72669326441201   15.23538179453818   13.91719756756216
C        13.65148455901261   11.90180173265111   18.38041558875470
H        13.41931515299874   11.53294489959550   19.35673323519762
C        14.88586928608551   12.31562573229106   17.89216188802261
H        15.81924670127295   12.33818701946477   18.41360651243215
C        14.63500138368106   12.68474868848399   16.58780085922047
H        15.29487070371528   13.06234150922491   15.83446558604873
C        10.71594459484151    9.65492809465334   14.86693269659851
H        10.04016294321706    8.97846661895990   15.35292712769111
C        11.29282036105952    9.55990049342696   13.60228808314786
H        11.15901306236184    8.78047881370636   12.88222591467519
C        12.07673133079276   10.68953059348170   13.49025825341483
H        12.70113365556433   11.02621264690193   12.68879896458943
C         8.12170821101607   12.96672203196013   19.47067857258682
H         7.95683559282674   13.43156654854113   18.49059330604230
C         7.31842273526342   11.66626649159738   19.48979360542563
H         6.34484223686155   11.83559609000362   19.03232338808840
H         7.14062621113454   11.33515683399338   20.50758100583854
H         7.83249939426740   10.87845799363467   18.94897768030950
C         7.55771542662520   13.91090304249295   20.52953802861833
H         7.76112700150070   13.54962519427408   21.53453400291601
H         6.47537650815287   13.95242753156823   20.41253296879143
H         7.93413342688087   14.92395915647014   20.42606224622283
C        10.58684429785377   14.46207062830911   19.67876034816875
H         9.84711740842828   15.04069117318627   19.11074063940400
C        11.94643572752366   14.71329754917993   19.02734708856472
H        12.74460702783795   14.19501044964205   19.55212157200363
H        12.16802331547128   15.77894746484618   19.05446177707007
H        11.95688658158300   14.39655959230992   17.98972539729309
C        10.63473210532575   15.01657885497827   21.10421735541640
H        10.79962480174171   16.09166265647828   21.04822315032839
H        11.45900067728682   14.59086558466467   21.66813454035221
H         9.71844964225923   14.85571714847735   21.66011813804629
C        10.31220997405934   11.93581785888915   21.16403272640791
H         9.86973553557788   12.64702894192229   21.86756694254953
C         9.66037076612027   10.56697866267664   21.37612851635603
H        10.20597965112247   10.02174470611278   22.14415164808777
H         9.66667729993678    9.97330388866762   20.46560430132940
H         8.63543571261178   10.65983553983426   21.71853168328373
C        11.80537048743752   11.83403875489552   21.47801917713718
H        12.22902504339995   10.93315008509860   21.04157313478055
H        11.94559092336398   11.76822342936032   22.55587451398642
H        12.36319379916366   12.69290977554962   21.11769884212693

