44
CSD_code = BEJSEO | q = 0 | S = 0 | Stoichiometry = C25H14N2NiO2 | MND = 4
Ni       -0.00002120561134    0.40515947807974    0.36635331971065
O        -1.44009687051920    1.76283101679768    0.95902735198440
N        -1.42733127228247   -0.66105123890458   -0.49577335952853
C        -3.12613775644539    1.10915438405387   -0.67471778546000
C        -2.46734836242995    2.02785163464251    0.34837361364700
C        -3.31239105064350    3.13575141381469    0.33578174183439
C        -4.34443663522479    3.41804941567272   -0.30635100869667
C        -5.01330894834611    2.66706184909918   -1.28092559740514
C        -6.15732637957895    2.95464752882759   -2.01551681541870
C        -6.63311253823658    2.03300151118624   -2.92239549548588
C        -5.96739105406951    0.82231079100933   -3.09682098490146
C        -4.83221019681072    0.52451045820134   -2.37514281256867
C        -4.30800143969430    1.42806016373667   -1.44346035395187
C        -2.46773315849767   -0.05859111407348   -0.75928463594446
C        -1.26955334062961   -2.07105447143003   -0.20845844582329
C         0.00002556689862   -2.29883134627218    0.61518770314041
H        -6.66053262657830    3.89788317515575   -1.86480352816427
H        -7.52178700198118    2.24564725991100   -3.49748843403007
H        -6.34718704715363    0.10454390716201   -3.80924587588842
H        -4.32928208060394   -0.42053530032919   -2.52697716897138
H        -1.20410608666166   -2.62032661604939   -1.15593778734407
H        -2.14067985183824   -2.43912959756479    0.34778811844478
H         0.00008186815197   -3.31767933808539    1.00444969679335
H        -0.00000867616499   -1.59920537671130    1.47174346249775
O         1.43959436900926    1.76359734572366    0.95820497311531
N         1.42733631382516   -0.66089045579254   -0.49568000859730
C         1.26957328770688   -2.07092197476739   -0.20847272993281
C         2.46695894117380    2.02843680568240    0.34764900146840
C         2.46772007706558   -0.05843363614449   -0.75929150089073
H         1.20411802817206   -2.62011557342330   -1.15599821489748
H         2.14072481520060   -2.43902188454536    0.34771729951007
C         3.12599294706435    1.10942423862661   -0.67496312028243
C         3.31189991305838    3.13641177980563    0.33480347791967
C         4.30798202930458    1.42813128659458   -1.44359050434976
C         4.34404848034614    3.41855235324114   -0.30723531022589
C         5.01317457343333    2.66724348759548   -1.28138263225267
C         4.83243928878350    0.52427514615109   -2.37484149605007
C         6.15732396011586    2.95463163231352   -2.01584896546486
C         5.96773998322767    0.82188563542317   -3.09640431299476
H         4.32960644603499   -0.42086197708633   -2.52642492897023
C         6.63335298846200    2.03268326160544   -2.92228947824687
H         6.66043641546906    3.89795676381951   -1.86538164412626
H         6.34772377140549    0.10388328903510   -3.80849219831422
H         7.52212951609121    2.24517288821108   -3.49728262488717

