109
CSD_code = BEJTOZ | q = 1 | S = 0 | Stoichiometry = C44H59ClCuN4(1+) | MND = 5
Cu        5.63804508019917    3.03904229240068    0.17216412093166
Cl        7.02338070626396    2.18662711565063   -1.28857172884459
N         5.95592880806032    2.43279299736771    2.16709183780880
N         5.30952825067339    4.90779663880351    0.87699904616117
N         4.03058731175086    3.41094112676867   -2.10152231344859
N         3.85546947988433    1.63261360717616    0.26390454180267
C         5.81572867548746    3.66820381300406    2.97744267833348
C         4.92218688729251    4.71179354810536    2.27066799436112
C         4.20333000697533    5.01582973560418   -0.11251449083011
C         4.71307199235786    4.18728036366388   -1.26594870918923
C         2.81984768438342    2.64399524279214   -1.82933656672680
C         2.64907681440235    2.13293256510864   -0.38687665876247
C         3.65145814641965    1.54417816911222    1.72576961577976
C         4.99132456619033    1.36141828377630    2.44220527732856
C         7.34361079253538    1.91517005395867    2.21533776253516
C         7.82576249618949    1.50795908872909    3.58517010203458
C         7.54163007288600    0.25222086110728    4.11010844389063
C         7.96692275759433   -0.09544542403290    5.38048906357122
C         8.69156494434655    0.80487821903626    6.14217861239497
C         9.00382700944129    2.04813762636060    5.61937291809150
C         8.57639533355526    2.39461454674383    4.35009729206184
C         5.34517344459578    3.46716191271083    4.42589305470275
C         5.72104939456056    4.64443443833053    5.32062881598487
C         6.33642356867792    5.95222743031500    0.71689902624364
C         7.67119964947309    5.62604122466519    1.33340877690804
C         8.55058890753472    4.77065886299895    0.67912679433938
C         9.80515372499205    4.51717395577941    1.20921739754500
C        10.19428153195978    5.11952558948057    2.39430072789792
C         9.32499207309917    5.97734661254554    3.04909229453284
C         8.07166791589575    6.23175168648123    2.51935223697611
C         3.83528341951373    6.46028872334211   -0.50277561021754
C         2.53069780338656    6.56277533611868   -1.28009907998510
C         4.67957503874857    3.03374604538609   -3.35714863268238
C         3.83105689166716    3.44137473174816   -4.53531031212332
C         3.68744779995109    4.78938044524508   -4.84588622588307
C         2.89729677226191    5.18255405365277   -5.91059357243248
C         2.24566208029045    4.23068224024334   -6.67819248032472
C         2.39281270895852    2.88687245969947   -6.38166184218316
C         3.18004727339938    2.49345193723098   -5.31240515285983
C         1.54172506954323    3.39551025062987   -2.25589579790439
C         0.42001200704381    2.44164848893893   -2.65135404138634
C         4.39536955387069    0.42213515676430   -0.39763329644303
C         3.56854151759387   -0.84015750792194   -0.37041638987322
C         2.48612117820539   -1.02802300246581   -1.22334452533744
C         1.74966470459009   -2.20002351751767   -1.18796526799990
C         2.09756712837581   -3.21552302182040   -0.31530259232843
C         3.20012049842850   -3.06020265459561    0.50736561110336
C         3.92708651891356   -1.88426612392283    0.47633032639057
C         2.64858646178704    0.48176316560021    2.21521774325731
C         1.93966990055867    0.92069478923848    3.49270378294740
H         7.99831910769409    2.69386910891973    1.81922015412122
H         7.39982544761656    1.06738548468823    1.52842868067414
H         6.99909611514658   -0.47209494375562    3.52009532958867
H         7.73818626887395   -1.07486305204217    5.77248209062936
H         9.02387143662446    0.53310933132192    7.13202791508932
H         9.58681864440423    2.74796948691936    6.19857632432089
H         8.84353861958661    3.35934291763335    3.94257059157022
H         6.81841423017677    4.09664220645977    3.02409900340964
H         5.82882539087724    2.57902676038885    4.83444904079620
H         4.26320395573958    3.31999462967759    4.45953515646529
H         5.45022326275722    4.42236746176149    6.34926213739495
H         6.79288974854475    4.82190137625422    5.28394708073155
H         5.20523489475314    5.55573886731348    5.03020550170975
H         4.99786532055718    5.65395082300182    2.82466909882681
H         3.87986705173104    4.39220877233567    2.31764378218367
H         5.97412395713007    6.89587927859356    1.14492400275516
H         6.50185114729464    6.09780668267131   -0.35146321734906
H         8.25633216460257    4.30174873476276   -0.24866946524908
H        10.47909148751408    3.85301695684618    0.69068573757542
H        11.17407605355845    4.92688238867699    2.80331370532391
H         9.62566925291733    6.45609525838190    3.96877833360790
H         7.40529352198886    6.91435870065076    3.02802967097244
H         3.31819079365406    4.55938751517719    0.32910619725849
H         4.62940669438807    6.90782871611737   -1.10013687419232
H         3.73767673511846    7.03799395560628    0.41850008736343
H         1.69727382686880    6.17131338357335   -0.70184442973444
H         2.32189002780007    7.60640821480765   -1.49935404128320
H         5.57629901481864    4.64879345752173   -1.73657102558900
H         2.59276329997645    6.02579195676309   -2.22176661103242
H         5.65593382406400    3.51504241371855   -3.41397210233952
H         4.85796663632917    1.95578301492986   -3.36822395024028
H         4.20379327260097    5.53185299358102   -4.25366852406731
H         2.79438568037885    6.23078782940776   -6.14578597764303
H         1.63188553795096    4.53690019806846   -7.51072965457718
H         1.89651495907930    2.14229198968869   -6.98471890812210
H         3.30255953392630    1.44199292080905   -5.09479070084516
H         2.89375195374133    1.77264266779742   -2.48651078854693
H         1.19875899436416    4.04300280619587   -1.44939079528670
H         1.77325199599099    4.02112499995378   -3.11749154286910
H        -0.44997112056479    3.01232151354798   -2.96347072037967
H         0.72653438679555    1.81637210136772   -3.48634045208664
H         0.12258968926724    1.80309680808826   -1.82373879520743
H         1.88281403371526    1.35047316548709   -0.44087521092289
H         2.23209306601014    2.92874473872819    0.23464784584760
H         5.36937781830970    0.21510042618800    0.04504919279277
H         4.59262522438302    0.70057579885096   -1.43398141325748
H         2.22026475064002   -0.27027848473101   -1.94632037154917
H         0.90946817705338   -2.32334816200118   -1.85460908330823
H         1.52586550451896   -4.12998860525243   -0.29094291299807
H         3.49843869588939   -3.85877185156050    1.16932015740228
H         4.79902398286750   -1.78451533275007    1.10782658955544
H         3.24305279586357    2.51773950670961    2.01712214424763
H         1.89659747971793    0.29790759490524    1.44822075843803
H         3.16174494676547   -0.46144179911478    2.39683138134363
H         1.24357539171278    0.15000661114512    3.81136051056504
H         2.64709561990591    1.08780017986015    4.30129057596405
H         1.37636553818156    1.83799370701372    3.33172874213784
H         5.42971276037740    0.42557448047452    2.09894662641701
H         4.80065904271723    1.25067715772081    3.51149281345647

