39
CSD_code = BEJWIZ | q = 0 | S = 0 | Stoichiometry = C19H16ClNPdSe | MND = 4
Pd        4.44415936505497    2.24005241280447   31.62726173915142
Se        2.34380883402450    2.27287907045921   30.22341635872689
N         4.42363002237495    0.25307844107252   31.49713258519653
Cl        4.20787353910175    4.43748036085865   32.02147758456419
C         6.16029548434478    2.16363522477983   32.65289189635725
C         6.41042809592961    1.09842915933434   33.55289709510650
C         2.93895952372769    1.80517879130978   27.42992680690416
H         1.94058221276961    1.39165550326274   27.39795641052021
C         2.24424704131408    0.29369555607122   30.35363804918800
H         1.68151041090606    0.09269827573021   31.27020872565315
H         1.69630151233096   -0.10399103803551   29.49780403734709
C         4.70430244224134    2.89679135851082   28.66198485311767
H         5.08116234028855    3.34612716269206   29.59105683908417
C         7.48519242283485    1.21473543015639   34.48477130607610
C         7.05138554176392    3.21391476224941   32.59450886592723
H         6.89683242098947    4.02580623094260   31.89285760366014
C         4.99953074674755    2.36696781225687   26.33603817443314
H         5.61134755968644    2.37734632224585   25.44653784923239
C         4.77354110365375   -0.48980277529248   32.48297684577315
H         4.43669799340366   -1.53232344621188   32.49785576290495
C         3.72758331319420    1.81854165398079   26.29322712422286
H         3.34513190427961    1.40690936378269   25.37091355769127
C         3.64099051308250   -0.31914272221206   30.42730272171547
H         4.16735852379517   -0.12557873244083   29.48261438324861
H         3.54641984124155   -1.40974840144076   30.55309111654379
C         6.89597888008093   -0.90771309206285   35.49035505825368
H         7.04954854677154   -1.66520235478972   36.24441717849260
C         5.48220166704913    2.91035255336256   27.51533537144496
H         6.46899038807089    3.34732020731794   27.54655404541795
C         7.68270591660394    0.21359229357956   35.45631671278642
H         8.47891378651070    0.34508448676779   36.17523846303646
C         5.67300668135204   -0.13031946846111   33.54586545496927
C         5.92107900147366   -1.09369001762637   34.51425397706984
H         5.35462112559134   -2.01476393358726   34.50229078453570
C         3.43448605290284    2.32952930518302   28.61663655235314
C         8.34075311338732    2.33236046021520   34.41733560924974
H         9.14988581161688    2.40948139982937   35.12939573157871
C         8.15124548067652    3.28972718140073   33.46194821256536
H         8.82311083881363    4.13280520200254   33.39000855590642

