51
CSD_code = BEJWUI | q = 1 | S = 0 | Stoichiometry = C16H24Cl2N8Rh(1+) | MND = 6
Rh        5.00277606580581    1.94448184497840    0.00010381109030
Cl        3.59773839546539    3.79723821449126   -0.01180429399931
N         4.42034339826532    1.55201523474632    1.90838240347829
N         3.30398972246332    1.62647010922053    3.79385344853616
N         3.47965676588981    0.81018244025033   -0.66204062593161
N         1.62071729266809    0.19585001875607   -1.64452920440387
C         3.43438742552316    2.13952081921962    2.56556823562045
C         2.34401006734880    2.01535946281793    4.78917991742042
C         4.25182925462362    0.65775236917523    3.92997260797715
C         4.94113581289368    0.61818195426586    2.75617232276565
C         2.47268822069080    1.20411583212128   -1.42205015564824
C         0.41576888351010    0.24407376293267   -2.42509449836113
C         2.11145007807467   -0.89788714952835   -0.99719900076315
C         3.26518946410708   -0.50737970270482   -0.38651340019995
H         2.82034296527299    2.93064935245742    2.17936411775981
H         2.85305565036516    2.33058657844753    5.70102001412320
H         1.68703045641585    1.17779392990338    5.02924945939746
H         1.74500389720287    2.84154988971729    4.41223964435565
H         4.36254986233746    0.08372423409644    4.82624941239621
H         5.75003366168189   -0.02344990924133    2.46741945963031
H         2.33285072920301    2.20124580881600   -1.79265725536745
H        -0.42467720185632   -0.13244544040955   -1.84097844953825
H         0.51831452197893   -0.36956886463327   -3.32209348131983
H         0.21338185864811    1.27199223527774   -2.71853635575930
H         1.61807622412247   -1.84715021328881   -1.01919864842285
H         3.94760090994756   -1.08420654897954    0.20614885499471
Cl        6.40680171005888    0.09085173897233    0.01120268277368
N         5.58476262562054    2.33634456479013   -1.90850960012664
C         6.57096017939130    1.74889775896067   -2.56550716061159
N         6.70159539899234    2.26198434785158   -3.79373155086761
C         7.66150687838951    1.87280474835685   -4.78903257642126
H         7.15233541296017    1.55769662351033   -5.70085279898522
H         8.31878776683047    2.71012231844072   -5.02914605941928
H         8.26020594916924    1.04640279651810   -4.41204199822476
C         5.75384593667348    3.23080536508008   -3.92992798822691
C         5.06451389558640    3.27050627399143   -2.75614254793252
H         4.25561905166845    3.91213118586589   -2.46740809471627
H         5.64335227816876    3.80504738717336   -4.82608572756634
H         7.18488825525586    0.95763505689731   -2.17928274142223
N         6.52607193507788    3.07848984254029    0.66188081480690
C         7.53301636777810    2.68453627617305    1.42187505603719
N         8.38491289983895    3.69282794208888    1.64440073481803
C         9.58986756615100    3.64444256015464    2.42490839789796
H        10.43030667010097    4.02089412892122    1.84077609772002
H         9.48736248530810    4.25804747149968    3.32190419552971
H         9.79211325210502    2.61649453809947    2.71824984951925
C         7.89403233912732    4.78665097053865    0.99733955308233
C         6.74019137975840    4.39617188181013    0.38684167691629
H         6.05759270314056    4.97301210878809   -0.20557879837648
H         8.38732503200792    5.73595379984288    1.01938397742707
H         7.67298764818937    1.68735205022610    1.79225626654414

