68
CSD_code = BEJWIY | q = 0 | S = 0 | Stoichiometry = C31H32BFeO2P | MND = 8
Fe        7.87000309979997    3.35097331165738    3.01993138641750
P         7.48144895409380    4.38520363557689    1.09074592119201
O        10.68165972568620    2.72174147584024    2.90717636234940
O         9.06496934066709    5.61678002764329    4.34686936011429
C         6.32947872311935    2.82808120107333    4.63640976790542
H         6.12267433814700    3.43714176380964    5.50174594181931
C         5.58297930212151    2.81327365917256    3.43548977757683
H         4.71958063449654    3.42053111921790    3.21993673955010
C         6.05305428572934    1.73896271660290    2.64040982427786
H         5.63715007010856    1.42908966049999    1.69696725792967
C         7.12508305614362    1.13175038972404    3.31483767595597
H         7.64006313085384    0.23539887634823    3.01011718683125
C         7.30022761954858    1.80143795573481    4.55913515289174
H         7.93748902568569    1.47241775830148    5.36380993715668
C        10.17200333790738    3.95916333035439    0.06693065190377
C        10.03001731114475    2.58268128564443   -0.19375501803799
C        11.13431142051551    1.74391804272150   -0.18264949846723
H        10.99541019808979    0.69172601479611   -0.39336162482774
C        12.40686004927125    2.21222936051161    0.09809805622754
C        12.55342514437971    3.56706693687704    0.34976751035914
H        13.53769368822101    3.95880870740009    0.56760672952971
C        11.47207024290994    4.43202476567237    0.32942276769764
C         8.70201642430747    1.95068258222423   -0.50459891942723
H         8.20841551925927    1.65286589546562    0.42289169803928
H         8.04346591013321    2.63258232362349   -1.03497158194534
H         8.84400041487984    1.05798569629708   -1.11128034035621
C        13.58065572569468    1.28324669629609    0.14921681560535
H        13.44140763540647    0.44260601512198   -0.52739621194719
H        13.69559937889814    0.88824051122362    1.15949679356383
H        14.49891476925671    1.80313251437636   -0.11523253982622
C        11.71798362804728    5.87762340112580    0.64449873134253
H        11.29789862139189    6.12469842113181    1.61870423085812
H        11.25165032653076    6.52071832343573   -0.09715913767254
H        12.78496821368234    6.08688733951945    0.67131038696245
C         8.85130357710027    6.25780939652020   -0.76206954735370
C         8.78920068443908    6.18833484061991   -2.16452935378482
C         8.62177118127651    7.33601917870033   -2.92016003450457
H         8.56849202026415    7.25744644466659   -3.99777265265745
C         8.51584052812916    8.58706235575752   -2.32737003606234
C         8.59783446986152    8.66027557891398   -0.94831190367813
H         8.53099149288152    9.62267166425040   -0.45920612017985
C         8.76136978035250    7.52397771410492   -0.16769124121825
C         8.86284161162070    4.86102231631831   -2.86143862166860
H         9.69138290331437    4.27045685357907   -2.47711401166371
H         7.94376097556897    4.29746510195263   -2.69670033894245
H         8.99044899889855    4.99428886549467   -3.93331374629507
C         8.34087170695830    9.81642719633530   -3.16674442169919
H         8.03786682186409   10.66351410751519   -2.55605464419741
H         9.27862773388458   10.06940959048370   -3.66249639000979
H         7.59073755392130    9.65187698885086   -3.93835416826153
C         8.88639845906589    7.71532677530236    1.31615152271507
H         8.93705908744765    6.76127983994031    1.83665332455318
H         8.03595021678415    8.27890951499827    1.69740280559388
H         9.78990985614937    8.28160680276192    1.54411969929413
C         6.39184268979329    5.82583436791696    1.27417872468343
C         5.89100041832643    6.43272888549219    0.12241295404325
H         6.18139631314396    6.05389286955863   -0.84691308418377
C         5.03628515010775    7.51324143548810    0.21408348430528
H         4.66943694429406    7.98333801009110   -0.68690617238287
C         4.64761995067191    7.99278097389854    1.45470985020456
H         3.98035233749506    8.83916278781609    1.52585553172790
C         5.11077183655320    7.37375133864981    2.60432396544592
H         4.80154512351818    7.73563479498906    3.57492411097216
C         5.97118978227427    6.29600739497916    2.51536103985322
H         6.33515233160159    5.81571601012382    3.41635195007308
C         9.57006737661606    2.97964262927343    2.80442602891265
C         8.52509051208339    4.75906310203994    3.80736808380299
B         8.94696030800358    4.94345255788210    0.09690162100893

