94
CSD_code = BEJXUL | q = 0 | S = 0 | Stoichiometry = C31H54N5P3W | MND = 6
W         5.19426503934107    5.42726687517718    3.28699173832215
P         3.85249073277691    3.41809289556621    2.74504637919453
P         5.63321697106851    7.81864005789311    3.66179578447925
P         7.42570217489129    4.48345206496143    3.54842011655390
N         3.25530584967905    6.28291819470246    2.95585591435869
N         4.86462751486608    5.24879975611622    5.12774097447775
N         4.66917844068636    5.09721536294139    6.22913423066965
N         5.54284577502237    5.55200594705782    1.44904216649784
N         5.75700588441525    5.60855518248610    0.34159819645753
C         4.35321613760675    1.98750418756672    1.57288520501684
C         3.29080637245908    1.53852260917086    0.56713392167907
C         4.82746540944730    0.78315440269326    2.38595630568076
C         5.55468034520857    2.51340330824653    0.78630462441968
C         2.61079185057157    2.73107229501491    4.02046295000248
C         1.58925576210968    1.72751418788991    3.48556431761029
C         3.40309601213133    2.09930907759210    5.16719671176027
C         1.82745234891038    3.91730307472252    4.59288588679771
C         2.72078202437074    4.33860257827144    1.59316760761776
C         2.35084755765287    5.66171327272574    2.17371140304562
C         1.10047413348158    6.19894054496835    1.91271034633820
C         0.73619430191726    7.40973489683493    2.47901040000155
C         1.66664810484959    8.04634916581451    3.28398439267413
C         2.90899157092111    7.46950859100359    3.49290351889303
C         3.93030261340799    8.18635125927411    4.30917350564575
C         5.75839967869940    8.98239494095662    2.15522749193228
C         7.02364020740150    8.60754162325571    1.37962310301065
C         4.54766489524928    8.70741718559310    1.25812901401773
C         5.77002941608701   10.48070046090096    2.45388123529334
C         6.65304852482289    8.59277422591725    5.08486534063867
C         6.63510419636101    7.55246375206946    6.20632528144520
C         6.15054957151950    9.90787509518342    5.68287504944084
C         8.09510955511196    8.75735069127607    4.60235294427044
C         8.57312638869618    4.81518476888976    2.15450189626972
C         8.60145769467381    4.90589936081540    4.91988197941211
C         7.60562704676750    2.67581752410149    3.80404137068002
C         8.26835444360915    1.80326369031293    2.95041232819031
C         8.37341866998576    0.46028545833845    3.27258276414505
C         7.82333488768315   -0.02422581472300    4.44655205846358
C         7.14998611568149    0.83816675455056    5.29859765228021
C         7.03813978778025    2.17619382630176    4.97370236425967
H         2.37572305608124    1.20472793422827    1.04387010747662
H         3.69262070957901    0.69956246656949   -0.00155357767334
H         3.05049334127768    2.32615875259496   -0.14232251714587
H         5.51102510151662    1.10101364536121    3.16791071006324
H         5.36059645280304    0.08746575732335    1.73764362032125
H         3.99924843698966    0.24184905604845    2.83459093029137
H         5.26551529023877    3.28246090235882    0.07301926100768
H         6.02377588616873    1.70257733565799    0.22981300146324
H         6.29201851857333    2.93322400003274    1.47050954855804
H         1.03128194111254    2.13278160620687    2.64380584575530
H         0.87175353249712    1.50562284243916    4.27625740556467
H         2.04986231485360    0.78939703490140    3.19164960694063
H         3.99523675967852    1.25137266229945    4.83889824934202
H         2.71858214722677    1.75606930984156    5.94301194333545
H         4.07006377268506    2.83320407887843    5.61106181722413
H         2.49091816796535    4.72629280246736    4.89015671426558
H         1.28360093226230    3.59648669020767    5.48131414555308
H         1.10289385779025    4.30291120244352    3.87868347239535
H         3.32369509167031    4.50020088319151    0.69243858940833
H         1.82693178978662    3.77679241245669    1.31422788210280
H         0.41462919646441    5.66378577734899    1.27313002397597
H        -0.23483340485852    7.84222167433480    2.29720908323230
H         1.43589090394500    8.99493719134298    3.74533827153343
H         3.93584913724460    7.77065700490172    5.32349270911008
H         3.69975839515495    9.25250025813355    4.36814896920692
H         7.92557546971192    8.86960750930353    1.92485005412923
H         7.04333129975909    9.13427274394561    0.42582134723167
H         7.03979416665761    7.54032389054270    1.17372083958629
H         4.41526630888329    7.64335027287068    1.08040058730128
H         4.69755131248384    9.18469741614106    0.28978262542306
H         3.63239228892713    9.10695607301189    1.68990520000359
H         4.92534608969060   10.77222928608538    3.07447614736824
H         5.68976810265784   11.02476093173012    1.51223869325576
H         6.69447873912069   10.79357358541246    2.93049002747386
H         5.66514084082347    7.50932094652480    6.69776030546560
H         7.37687530060074    7.80128968921178    6.96477872996645
H         6.86082984153587    6.56626951937626    5.81143451435224
H         6.16187607315611   10.72956475381947    4.97690536717792
H         6.80825070436601   10.17623051720910    6.51036647648201
H         5.14647458694900    9.80561894799709    6.08620022795454
H         8.39353591578932    7.88909744660261    4.01525467455342
H         8.77184756591283    8.84863605259669    5.45210790370446
H         8.21291814003976    9.64854020588842    3.99108466876205
H         8.13787449197417    4.47981854521047    1.21505732427109
H         9.54080838642047    4.34063496817619    2.31456852155350
H         8.70606110100518    5.89575281223474    2.09895683168400
H         8.87873344794962    5.95578499032281    4.86669038098427
H         9.49688900319009    4.28940606650994    4.82733997486702
H         8.13692666893176    4.70613762281124    5.88369235845208
H         8.70331307255854    2.16191677251516    2.02940727229126
H         8.89230432932504   -0.21105104642902    2.60300702388602
H         7.91401672299192   -1.07137777525789    4.69568751622631
H         6.71160884423296    0.46460919091902    6.21284859419337
H         6.50254584786379    2.85412145072092    5.62533152621088

