43
CSD_code = BEKBAX | q = 0 | S = 0 | Stoichiometry = C16H16Cl2F4N2O2Pd | MND = 4
Pd        3.07127018976434   14.16082382413138   15.63688808867489
Cl        2.94390440981866   12.20270492263494   14.61794043210232
Cl        3.97662731183579   13.15392776391809   17.38496015955045
F         2.83454071148268   18.84346589163274   21.73412731246946
F         2.19561360498772   20.91130644729295   21.87017104041841
F        -1.04771077160211   16.21949824490345    7.54211303175623
O         2.88207433359249   20.12504271091558   19.29689513253288
O         0.58361100649296   17.12478431018316    9.87211076059939
N         3.11206183441124   16.00021729818614   16.45364547810091
N         2.25483953067619   15.20059170683127   14.11784579754442
C         2.58207444039432   16.96870815070899   15.67268126516789
C         2.49248701858250   18.28340842544064   16.12768781935044
H         2.05340735689052   19.04723696860330   15.50614622592810
C         2.97070701013226   18.61523220696219   17.38550022170966
C         3.53306980526792   17.60254749949268   18.16257506432915
H         3.92459022829145   17.82460101599847   19.14271963163153
F        -0.10994086264930   17.86456013429700    6.49593692854132
C         3.57582796178660   16.31638577940698   17.66292439928714
H         3.99222352106647   15.49432163932958   18.23592679167170
C         2.12065819164220   16.52471773910999   14.35714189325741
C         1.58776372062297   17.37469641560528   13.38994878627508
H         1.49301927299528   18.43089225586624   13.58479289981488
C         1.18039534411417   16.86352623543190   12.16674144284637
C         1.32279149198541   15.49544311807347   11.94698152386104
H         1.01750035236555   15.06702507172587   11.00780028393948
C         1.86467737101718   14.70733328641281   12.94322201182796
H         1.99770232361204   13.63765645678607   12.81731087516647
C         2.90710736864051   20.03332271009445   17.89588311324220
H         3.81979398611644   20.56061187381374   17.59718907006017
H         2.04464923521719   20.55592901876705   17.45459962056145
C         1.66542448444648   19.73148095208904   19.87798646916042
H         1.36501774413403   18.72592324551514   19.54966448111350
H         0.86254498570013   20.44457565823199   19.63575504763466
C         1.84755801886855   19.69905199864029   21.39426666728691
C         0.58607796553428   17.76777726633805   11.12472142672891
H        -0.44599103692088   18.02580751233874   11.42013053477704
H         1.16009243181137   18.70718981638527   11.07099048403558
C         0.00041089916367   17.89519058416647    8.85558681008863
H         0.57617711015994   18.81509886554024    8.67093140975794
H        -1.03629415821395   18.16736246479638    9.10385695012996
C         0.00682978698465   17.06097446351493    7.57790234882534
H         0.92829926932370   19.38123858187225   21.91290648860848
H         0.92611519947928   16.46590946799812    7.47819377964560

