60
CSD_code = BEKDUS | q = 0 | S = 0 | Stoichiometry = C16H38N2NiP2S | MND = 4
Ni        3.38068273032065    5.76459017617455   12.35169483974909
S         5.51234904224682    6.32422176811814   11.76231110707207
P         2.61669919641716    6.53600154302508   10.49036627219615
P         4.12133088906278    5.05607358994232   14.21391957055719
N         3.43535183940260    7.86612466363180    9.82451592200474
H         3.98924512669172    7.61352981373922    9.01059682884781
N         2.82450855239772    4.31142768784235   14.98504588072262
H         3.03600179193873    3.60143027378489   15.67833258628613
C         0.87267162921685    7.21310514625898   10.41496428703480
H         0.20208121576873    6.42000871357031   10.75853192825880
C         2.68504062752470    5.34173219017576    9.06994131243288
H         2.46354964004018    5.89830608737762    8.15065852240256
C         4.57698713580417    6.33373322654683   15.48079464343003
H         4.48076435495848    5.87580429423245   16.47318976667458
C         5.54745700534290    3.85738109067320   14.17803990099953
H         6.41273840433926    4.43945464698701   13.84840929623696
C         4.25096154245754    8.62194001403745   10.76005061746499
H         3.69625221079599    8.69508778323898   11.70275240995480
H         4.39704503597437    9.63347437480025   10.35984674939445
C         5.60917334497922    7.98877638585462   11.03040570254267
H         6.17877601368964    8.61616423041076   11.71896027377253
H         6.17028848377723    7.89189776993821   10.09685975309096
C         1.75756238321369    3.94843354313992   14.05676091384606
H         0.82223505773706    3.86165743079892   14.63007909153810
H         1.93894808002297    2.97880326957075   13.57291461612829
C         1.64291913622621    5.05233220396410   13.00821355884616
H         1.18106931255380    5.93005358692894   13.48575182008851
H         0.96515439151246    4.71067820835956   12.21745629587776
C         0.79256505426293    8.37582252780876   11.40071113256258
H        -0.23856052467509    8.69824633878783   11.53760231475644
H         1.37023272696182    9.21942579541863   11.02824797524536
H         1.19365423916085    8.07928158102820   12.37066301049283
C         0.46754960737083    7.66854798284648    9.01995934463983
H        -0.47949064697971    8.20462514603768    9.06697268613600
H         0.34427640462089    6.82901088645058    8.34049640081981
H         1.22147244599498    8.34120340278377    8.61625389855314
C         1.67045887972371    4.22213889702744    9.26740531734385
H         1.73975292302190    3.50220803303101    8.45263590093820
H         0.65236267802440    4.60335951383752    9.30003931097169
H         1.87860090388722    3.70275523961366   10.20185188344882
C         4.09103828333310    4.75430488327254    8.99519623673659
H         4.15470609938990    4.00560950809935    8.20671307042040
H         4.33926828626700    4.28285889529293    9.94785074429223
H         4.84204835357761    5.51828511322706    8.80109423564917
C         3.52199067674289    7.42578033173705   15.32401568517405
H         3.70484637855858    8.26028538788884   15.99933146296305
H         2.53160404642234    7.02012225449132   15.52360313912151
H         3.54087489060862    7.79716606776082   14.29448662507533
C         5.97958903485968    6.88825680299890   15.27576136837441
H         6.12832482675278    7.77501985408990   15.89097009435358
H         6.11885097736147    7.16072464843634   14.23101255211965
H         6.74029172938533    6.15801045686130   15.54137201900186
C         5.22396526944427    2.82185898349121   13.10516784123663
H         6.08243201096277    2.18507135263283   12.89961813515672
H         4.94432438090276    3.33761757812482   12.18375034952175
H         4.39143231296209    2.18993141602683   13.41463011102082
C         5.83336537104151    3.20864228745226   15.52586294054435
H         6.71869196198800    2.57844536195029   15.45190036774747
H         5.00340180223447    2.57601546186873   15.83962621828123
H         6.00993444141503    3.95444429650545   16.29773315984594

