62
CSD_code = BEKFEE | q = 1 | S = 0 | Stoichiometry = C16H40N3NiP2(1+) | MND = 4
Ni        2.23162628323779    3.14402720990759    3.14159245498142
P         4.02656548084352    4.37616228580759    3.24647600211778
P         0.21964352404654    2.29429536172343    3.20409392260912
N         5.34433552990052    3.74286604960404    2.40669128966892
H         5.96299625941718    4.45898736488265    2.04101285930489
N         0.15483599717496    0.63468768264154    2.97207720596105
H        -0.77461152832645    0.28924619025704    2.75806684605458
N         3.09434344548678    1.49874361745994    2.25653469017861
H         2.74604737926208    1.55771430173332    1.29229608726902
C         4.60668995088738    4.38588480016169    5.00850719395412
H         3.91544694680560    5.04798183060353    5.54125021599678
C         3.98826680369637    6.14998642945365    2.70268431260377
H         5.02732104654673    6.49785213841836    2.64706308927047
C        -0.79423917377820    2.46995384689387    4.74187034244193
H        -0.95745581228747    3.54515130443281    4.87175540883417
C        -0.76407179439094    3.07911345762315    1.82397596913381
H        -1.62946778362093    2.44701551973124    1.59311002382038
C         5.17497517724280    2.64672420633441    1.46219095759652
H         6.16983503585304    2.37197347628990    1.10179601713111
H         4.56838435476391    2.92529990870267    0.58751228515262
C         4.56026981675258    1.42858605597474    2.14383195812952
H         4.83901046226483    0.53524888051461    1.56657202178927
H         4.98511565261821    1.33554882444403    3.14588288825696
C         1.19183933370387   -0.13463184265060    2.30499190145743
H         1.16192123369578   -0.03247331641930    1.20891835994408
H         1.01170528433556   -1.18899268689608    2.53760720648089
C         2.58396292961791    0.22689000421875    2.80984360356117
H         2.56758755384837    0.28733398116389    3.90231473141722
H         3.25694101584841   -0.59129728309393    2.52123900318051
C         4.42501876607338    2.97050276096408    5.55329013531768
H         4.48220510338865    2.95934593022433    6.63921132259697
H         5.19955203853165    2.31154506977209    5.16656303105866
H         3.43993345063420    2.58220893327680    5.25446467247855
C         6.03610978883574    4.88277539701520    5.16379722951176
H         6.32838351149146    4.84660069780562    6.21109026797640
H         6.13729849637916    5.91000144457571    4.82085733396953
H         6.72051119747959    4.25509475307928    4.59756566560845
C         3.20479833901818    7.03052041430812    3.66551081508331
H         3.07151676129830    8.02055517162640    3.23499061406458
H         3.72293973255353    7.14377891168594    4.61393718238366
H         2.21882776958683    6.60637434505146    3.85261548671140
C         3.36264747460862    6.17523585331154    1.30961440720597
H         3.33208603160191    7.18925916194183    0.91809480442779
H         2.34060937130505    5.79632089746860    1.36223789587317
H         3.92711620305177    5.55995750640033    0.60898385560058
C         0.05880110561618    1.96516342656959    5.90187643625089
H        -0.44964120558170    2.12238364275747    6.84971026615668
H         1.00962297389551    2.50102460228165    5.92675659055190
H         0.25764248516933    0.90095405842476    5.79061108549233
C        -2.13636786013128    1.75141450921406    4.67474679324887
H        -2.72265526054758    1.99500026719913    5.55829066088880
H        -1.99819030149349    0.67304898293470    4.65778087180414
H        -2.70938907672620    2.05125863791067    3.79960027679828
C        -1.22525107695208    4.47938436367253    2.20374682171577
H        -1.64969530285649    4.98102130661318    1.33653522315286
H        -0.37856708867465    5.06771636119783    2.55901078404861
H        -1.98380750968444    4.45179970382506    2.98107947808570
C         0.17441222576663    3.13218631746357    0.61865237414739
H        -0.27005606832745    3.69491636280751   -0.19952919712035
H         0.40347479135308    2.13195945891149    0.25177074451532
H         1.10894163015620    3.63239153216356    0.91192678111508
H         1.63425109773532    4.24321961764768    3.75055044098032

