65
CSD_code = BEKHIK | q = 0 | S = 0 | Stoichiometry = C28H33ClCrN2 | MND = 7
C        -1.07638683644686    5.01530110620374    0.36260988608185
C        -2.60809602859713    6.31527398922986    1.40739512974921
H        -3.39969704421011    7.03256628660010    1.47951534715472
C        -1.95771934777334    5.61288657607430    2.35626360666811
H        -2.07620176918555    5.60682501029844    3.42049462039132
C        -0.09029174159576    3.97721315118895    2.39727209561100
H        -0.29552172830051    4.03385925313861    3.46942522641947
H         0.92801099293658    4.33890638432665    2.21813305604628
C        -0.20692609010858    2.52328547970073    1.91116220171406
H         0.50031493358210    1.91372847800803    2.48369944239830
H        -1.21195489275392    2.16376237429888    2.12184954100679
C         0.10810890160940    2.44961298706969    0.44512180821563
C         1.34654708427082    2.91405374776612   -0.06395972391057
H         2.17326870842677    3.27523361320750    0.53062790687140
C         1.38678546166537    2.66830736055681   -1.45104743950944
H         2.25759934375788    2.79107351750052   -2.07922829745332
C         0.22541815946742    1.90511153007623   -1.78974330653578
C        -0.57547658763480    1.74819536607291   -0.60259665884153
C        -1.77833864622701    1.00961610540150   -0.67402801058697
C        -2.10862169994214    0.44478229153306   -1.88557084046914
H        -3.01035603332655   -0.14755337114508   -1.95975755161120
C        -1.32991513580949    0.61142528002168   -3.03945723390883
H        -1.66149556913041    0.15315204680631   -3.96029488052785
C        -0.16922589238229    1.34478535720505   -3.02236419214680
C         0.65952648257351    1.57364581419397   -4.24841079707283
H         0.22236819766656    1.07341113049670   -5.10911439516617
H         1.67411041150609    1.20133894404747   -4.10525358710805
H         0.71864335822510    2.64332028451294   -4.45669412213446
C        -2.68360146194967    0.81684760933742    0.50874229319375
H        -3.54717435461286    0.21911165478726    0.22462814949943
H        -3.04334440208671    1.77681823675478    0.88061917271542
H        -2.16619914764895    0.30040271672593    1.31720490262912
C        -2.43723057246332    6.53037677182030   -1.04108198239877
C        -3.39334539822365    5.89415073071628   -1.83474374831765
C        -3.74709666366625    6.48893965983604   -3.03867728585674
H        -4.47914743659325    6.01569067534464   -3.67453854007876
C        -3.15893623402429    7.67103327845080   -3.44129915243749
H        -3.43131636650306    8.11208558676296   -4.38872641576905
C        -2.21557885966257    8.28965921645081   -2.64251797598802
H        -1.75901768639191    9.20673903054148   -2.97853875120868
C        -1.84522486728007    7.73900123160506   -1.42451074694969
C        -0.79432559709125    8.38904349350201   -0.55356175679853
H        -0.94090636760014    8.05539905414400    0.47905058302503
C        -0.88184585269230    9.91590758059778   -0.56028436804818
H        -0.55472434237802   10.32594276970178   -1.51183228425180
H        -0.23873340150293   10.32311948575005    0.21697144714821
H        -1.90173625388327   10.24389903734187   -0.37115434822101
C         0.59306817340028    7.92627680543679   -1.00946188933755
H         0.66891164520946    6.83785013351420   -0.94499504402831
H         1.36371096697949    8.37299832976878   -0.38505745232764
H         0.76445452818407    8.21827881690059   -2.04281813663234
C        -4.02228036893590    4.58795505790353   -1.41130633180109
H        -3.59922602062304    4.28762975850535   -0.44729028935987
C        -3.69274396026957    3.49056430513980   -2.42385635314611
H        -4.13160418228396    3.70979881560812   -3.39328699728229
H        -4.07383452255321    2.53290907505827   -2.07918429795563
H        -2.61199540219718    3.40991553465589   -2.54374472478876
C        -5.53497723788807    4.74342495232386   -1.23810673200543
H        -5.75886007734723    5.52323961869739   -0.51278691288621
H        -5.96775009030319    3.80949096694892   -0.88649666034475
H        -6.00901460764774    5.00653039178576   -2.18008631216930
N        -2.06251917858974    5.94997248910017    0.19862571436182
N        -1.02156884073175    4.83374522026837    1.71610933903636
Cl       -0.38297015576030    5.07615362551854   -2.96788332764780
Cr       -0.23359239464300    4.04097818828726   -1.10757161491849

