47
CSD_code = BEKMIP | q = -1 | S = 0 | Stoichiometry = C5H22B18CoO(1-) | MND = 10
Co       19.80401475143839    0.79145598101645    1.63299521171968
C        18.81078598486372    0.84824863339524   -0.22040394034918
H        19.56011190684917    0.80579588645612   -1.00908277217356
C        18.51715148969275   -0.46720432764856    0.53721260692658
H        19.08194109584354   -1.34720052185284    0.23019364780033
B        18.58096751438815    2.19086865875907    0.71080163590551
H        19.12276196775428    3.19903343511636    0.43121878234426
B        17.37381267542424    1.73413919205757   -0.52329695885550
H        17.31423572105740    2.39459991929952   -1.50344139474368
B        17.35910421100315    0.00208204237810   -0.65184815868619
H        17.35653851523578   -0.59885266702636   -1.67173354608667
B        18.06304761413293   -0.21000445483072    2.09583539640428
H        18.22343020279028   -1.07243459223855    2.88291735671006
B        18.06923591246825    1.60164201822529    2.30995673760937
B        16.85175885477290    2.19298581774337    1.09737837782535
H        16.26456780409893    3.19819884437114    1.30435509654769
B        16.08774943995341    0.82099630786872    0.27303661177475
H        14.96611330478285    0.83994775353562   -0.10606847923581
B        16.84272025047676   -0.64614237306631    0.88122095714312
H        16.39236524626632   -1.74010223437669    0.92747089980730
B        16.54289696511102    0.69057653419149    2.00652933941470
H        15.71276890420583    0.60980495341095    2.84451184743294
C        21.41363212955227   -0.53267606922648    2.05500086258789
H        21.13966819732764   -1.52241899274087    1.69233659928293
C        21.83885209222765    0.50726191914988    1.00059020096098
H        21.82076188813758    0.18983649036710   -0.04168372764057
B        20.71232865129414    0.15416358297172    3.38855400315742
H        20.01478190791639   -0.48836597003195    4.08783268048203
B        22.39612845709670   -0.43867092418495    3.45832659506115
H        22.60941038131121   -1.43278692353015    4.06559565168894
B        23.11798190099473   -0.22786974703165    1.88701302820713
H        23.76721200170750   -1.04488150515069    1.32667858480859
B        21.45344914449806    2.04037179720555    1.46415396890990
H        21.32103684014386    2.86157554859656    0.62496802089779
B        20.72657016889334    1.87532436826127    3.07729110016692
B        21.99773439555342    1.15222236799820    4.11564258844962
H        22.02631513832718    1.36497950056927    5.28079131302720
B        23.48912622795662    0.92220550929470    3.17245440550533
H        24.57176937859556    0.98250077118505    3.65055720953511
B        23.14929959816291    1.48091861215928    1.53974969001224
H        23.90762101826814    1.89424716343772    0.72847960676134
B        22.44334346514495    2.36015460288259    2.90373294451147
H        22.80886071706059    3.45258175892122    3.18412428484724
O        18.26956327748196    2.30232318945560    3.52073812578455
C        19.57537534375161    2.83175834064019    3.72850416518518
H        19.68722613523486    2.95451664095288    4.81452568872604
H        19.59907121075115    3.84749316106243    3.29828315384844

