31
CSD_code = BEKNEK | q = 0 | S = 0 | Stoichiometry = C12H14MoN2O2 | MND = 6
Mo        1.29525838670184    2.25894642735498    1.59621533717299
O         0.74652281850950    2.05271496349503    0.05572285425177
O         2.85935311671831    2.77405519220105    1.66780986572911
N        -0.68003661235316    1.62220535577844    2.30133583379983
N         1.26838644378444    2.28582279103122    3.78826287720377
C         1.60558899995979    0.11821209544322    2.13916609962384
C         0.27389021759673    4.18351801334800    2.07265828411491
C        -1.63735589965871    1.29778002668493    1.43546102943898
C        -2.89910341083275    0.89013016477384    1.82204668658447
C        -3.19219957351071    0.81232621045287    3.18052332865054
C        -2.20816480419788    1.14628411555701    4.08784290105009
C        -0.95434326692301    1.54982332786368    3.61775857093169
C         0.16419969890976    1.92759549215647    4.47061835289176
C         0.13008992165530    1.92798056682260    5.86866815440270
C         1.25606788349303    2.30720597088581    6.56975221512328
C         2.39148779341295    2.67840521100752    5.85552174489762
C         2.34811750161312    2.65086879092747    4.47539270794984
H         1.30819489314426   -0.49886994553038    1.28763466340731
H         1.09621318934147   -0.28502499584044    3.02196867649805
H         2.67592829972743   -0.04229668106936    2.28523755232942
H         1.04033873618139    4.94596181735431    2.22877941190830
H        -0.40318617299300    4.22728946755384    2.93346237535791
H        -0.30153922501496    4.49013835821549    1.19647242100822
H        -1.35129533998037    1.37781687043081    0.39312388280955
H        -3.63940416012962    0.63802458598041    1.08011673629310
H        -4.16766491908060    0.49803772475405    3.51903121123555
H        -2.40629638961789    1.09634863946091    5.14637018278694
H        -0.76387403170991    1.63502491139721    6.39509765748526
H         1.25434296079312    2.31472174237964    7.64898216133623
H         3.29171478786850    2.98237319317566    6.36465783937997
H         3.20036815658916    2.92767959595464    3.86580838434339

