57
CSD_code = BEKPUE | q = 0 | S = 0 | Stoichiometry = C20H31CoN2O3 | MND = 8
Co        6.52287306034086    7.86163521466901   10.90193347663015
C         8.45170654296011    7.61728079095837   10.77291437879486
N         9.19502885499024    7.71490987712273    9.65350229581353
N         9.32629960011903    7.61645187238792   11.79767550890649
C        10.52116961220323    7.77647440572233    9.97525670557384
H        11.29569923854655    7.85995259334575    9.24218751821632
C        10.60379157608553    7.71454912284755   11.32386885139432
H        11.46217638092682    7.73550404041136   11.96181795440268
C         8.69085199856190    7.79298421524736    8.29506941223990
H         7.60784179198871    7.65920136624696    8.36515737054289
C         8.96737057731203    9.17920524842049    7.71989321088246
H         8.47270958517229    9.92457731061101    8.33735556917110
H         8.56964539377242    9.24462617652393    6.71125332883782
H        10.03431129784954    9.38817007419238    7.68950603313306
C         9.30048913198768    6.68420775847215    7.43955482437238
H         9.16946553314714    5.71456294920456    7.91428935978464
H        10.36278270205088    6.85167532945302    7.27831123701327
H         8.81146835550576    6.66299415266770    6.46976123072324
C         8.99148738886566    7.56800222459243   13.20876483304827
H         7.90772965199186    7.43123049830033   13.25892251053015
C         9.33865989218731    8.89970929466085   13.86833223021097
H         8.77294528778119    9.69268392253470   13.38589529591487
H        10.40155106823033    9.11522637959930   13.78617770017094
H         9.06818968960983    8.87054661573259   14.91990361070763
C         9.69850692450011    6.39263334586515   13.88074503953112
H         9.50935419072545    5.46816431073364   13.34002555316662
H         9.33069038274634    6.28014237963464   14.89669057968303
H        10.77275792177712    6.55493239781854   13.92687829617018
C         6.94310193667075   10.14543581040974   10.97953609465285
O         6.84901213249904    9.33046518477519   12.00584140424376
O         6.72129429165446    9.42542626950582    9.90319445456660
O         7.21897597145298   11.31916846989549   11.01591889305738
C         5.79277926039972    6.07550195998178   10.13861664806160
C         6.34483796399631    5.02926227471001    9.21848630652187
H         5.69865190292472    4.14917690018571    9.24090786757649
H         7.34101238184839    4.71982144506036    9.52733810204694
H         6.39688584693421    5.38675426798552    8.19351960256651
C         5.88161691123191    6.00958649600730   11.58321974377798
C         6.53597765212012    4.88752717259750   12.33079304633849
H         5.88590811560145    4.01024442531634   12.31005175394714
H         6.71679728166866    5.15215675219613   13.36924016208330
H         7.48420991720104    4.61117446904864   11.87474568970840
C         5.01762139273151    6.99277059290709   12.11611118586360
C         4.69975527691798    7.25141347916684   13.55402092630650
H         3.62180566853430    7.19516489279543   13.70684062939655
H         5.03208732868239    8.24821326081290   13.84204762680360
H         5.18131328419311    6.52342456144279   14.20193028200676
C         4.45957581140885    7.72262681249325   11.02214373165469
C         3.42818876589790    8.79814130728897   11.13676059291865
H         2.43158208606099    8.35429791391285   11.20104635743631
H         3.45994155726862    9.45409409606147   10.27000321174199
H         3.59769714817489    9.39767106800431   12.02816121281212
C         4.87547274744965    7.09809164783305    9.80652439995257
C         4.38708627523935    7.48480421683217    8.44727856710563
H         3.29901831751149    7.42264365699290    8.41716423885368
H         4.79394348127424    6.83042569108176    7.68048169487456
H         4.67579566051418    8.51028103672294    8.21903165755611

