36
CSD_code = BEKTES | q = 1 | S = 0 | Stoichiometry = C15H13N5O2Rh(1+) | MND = 4
Rh        6.14622485044732    7.77195437740305   22.22121467996282
C         7.21744000333022    8.15533605496599   23.69246079568385
O         7.85331514478854    8.38706829988732   24.60057928968730
C         5.06055472625417    6.69178236332983   23.27445596072398
O         4.39273860540130    6.01564447241412   23.88917730149151
N         6.84605821877808    9.52209068705113   19.87553910254538
N         7.29291456592513    8.88285089636244   20.96564164185763
C         8.62188850834054    8.97819135912905   20.94237001889342
H         9.23034513155283    8.54354656102612   21.71383105605613
C         9.03150200774548    9.69253553912568   19.81877408070449
H        10.03249237670011    9.93306776833100   19.52963122220407
C         7.86615449548373   10.02484418823156   19.16336648079665
H         7.71066639943257   10.57952987925666   18.26034902525402
N         3.80658516880367    6.38196363973483   19.24930741179463
N         4.39188802231069    6.30644748249360   20.41575647563933
N         5.00895653640060    7.42221973781649   20.63400118987262
C         4.82047293354205    8.25923934170468   19.58387080150186
C         4.03528142556900    7.58201534886203   18.67784694575396
H         3.63664583474898    7.86168091028260   17.72598929118481
C         5.43283910459987    9.62385199908121   19.59293769732198
H         5.29434671934078   10.11837338201246   18.63078891544563
H         4.95214937228810   10.22786742783871   20.37796162835765
C         2.97477503941446    5.31330339860533   18.75386752215345
H         3.12316175278972    4.46520359609673   19.42647254783469
H         3.29946952604955    5.04178412502610   17.74662318333318
C         1.52846324397740    5.75407386791950   18.74788542630526
C         0.82956990482270    5.88551767961593   17.55700320488305
H         1.31026989829167    5.64968093600457   16.61860652808394
C        -0.49149106633223    6.30073877449577   17.57103511961479
H        -1.03338492714935    6.39139607528971   16.64254031549778
C        -1.11321249837020    6.59764784269197   18.77164507973345
H        -2.14209410735046    6.92153164237676   18.78072622075652
C        -0.41555822599707    6.47384817145124   19.96227210973318
H        -0.89903389549483    6.69999995808675   20.89978336176626
C         0.90179680817775    6.05255759626651   19.95191692542786
H         1.44550839537866    5.94571461972667   20.88007144214043

