53
CSD_code = BEKWOF | q = 0 | S = 0 | Stoichiometry = C24H25NOPRe | MND = 8
C         5.43366103995551    2.31310949102981    4.96601814381225
H         4.76606791199483    2.82046266420348    5.65547963978913
H         4.91638430896024    1.70666450118920    4.22956889257779
C         6.69756785766231    1.89471292446566    5.43398948716173
H         7.12368740521165    0.97914365493635    5.01877324663333
H         6.94784984038199    2.03685315999037    6.48206352269174
C         7.15904461014866    4.62111162259275    2.11280966764732
H         7.08534689808611    5.70474059647332    2.06521200554955
H         7.96010359815341    4.24402910199803    1.47681708982874
C         5.92234274198947    3.90905740204647    2.14921934500137
H         4.98703896209100    4.46061067737645    2.16098242620034
C         5.84090013348031    2.50961792039335    1.76790715914947
H         4.84455007975921    2.07829153818895    1.78335267024241
C         6.87759830899797    1.71025514971666    1.46307354658981
H         7.88656374483479    2.07179016972744    1.33385329127295
H         6.73292899178824    0.66331344206579    1.24906455340082
C        10.48817868856601    4.62969089430485    3.81970215186823
C        11.86354232516224    4.47738922732995    3.66782120687480
H        12.30024933115071    3.48809769646725    3.64712168721756
C        12.67072553700247    5.59155341281048    3.54124287510038
H        13.73709322391861    5.47050540074250    3.41706771210876
C        12.11539941482254    6.86138035545285    3.58003321757577
H        12.75082079045976    7.72902516724508    3.48107989027370
C        10.75028815796681    7.01577962220617    3.75206145082706
H        10.31695504719983    8.00369658596453    3.79247805782048
C         9.93623730546804    5.90315311714261    3.87416177355006
H         8.86724758682806    6.01031299172620    4.01138274099749
C        10.10584162542026    2.67153655892860    5.68752113357170
C        11.17645197218222    1.80036790365663    5.84372081700110
H        11.62628719356634    1.32186587999543    4.98456566774697
C        11.66729102161993    1.53450888109193    7.11031549310683
H        12.49436320090906    0.84948099315521    7.22946862040501
C        11.10577434479859    2.14334683447614    8.21987085880307
H        11.49293881111232    1.92934269638802    9.20504268826433
C        10.04875615145482    3.02675583210606    8.06526418928690
H         9.61217049742542    3.50689905447471    8.92810554072104
C         9.54926246546807    3.28975810699327    6.80435114854005
H         8.71737113202167    3.97213628232085    6.66599003571387
C        10.06339515316234    1.95604259108432    2.89947043743821
C         9.88655484606357    0.59847417406914    3.16259154575630
H         9.45733154806060    0.28976569528441    4.10746314949939
C        10.25706784304720   -0.34671071884036    2.22521000182716
H        10.12510406924526   -1.39748537424205    2.43910504425779
C        10.78818713187015    0.05297264609456    1.00860689595268
H        11.07283353764657   -0.68616277369524    0.27470317411321
C        10.94218991543029    1.40129271579823    0.73014073791542
H        11.34228888857752    1.71496911803264   -0.22308142315990
C        10.57601589191752    2.35171403477335    1.66627969737337
H        10.68533828202225    3.40498707027574    1.44392628271914
N         6.68795863946421    4.97741208094150    5.09671445578226
O         6.50481966223004    5.89770569335727    5.82467511107167
P         9.41272266107757    3.17758267373057    4.07646193618933
Re        6.98280967214281    3.60389286191612    4.05987930838200

