109
CSD_code = BEKZID | q = 1 | S = 0 | Stoichiometry = C54H50CuN2P2(1+) | MND = 4
Cu        2.64601541930498    3.67046894480039    2.93671698655986
P         2.52804446507635    1.39439088074145    3.03887699327139
P         2.93535853662095    4.74610170719027    4.86852725307398
N         1.04090578610461    3.91387552741423    1.65718170645887
N         3.69269510820878    3.83487263542235    1.17008334631441
C         4.29232316952660    6.77113320677287    3.58656068926201
H         4.23080383236438    6.09634168307200    2.74005306071746
C         2.85274412142529    3.67640855691702    0.13176108066643
C         3.86469662655549    0.58392300715436    3.97109651073676
C        -0.94187335280544    1.10615727553293    5.10428538839046
C         0.53539286642800   -0.58727506235575    3.42768746695043
H         1.09585163203631   -1.23274989264140    2.76558609427136
C         2.66741990187177    0.67054663259584    1.38211337633752
C         3.73003383643319    6.37704286851943    4.79524137702515
C         0.24423930135120    1.53539493315882    4.52956049636404
H         0.60373329554669    2.54322996496819    4.71408277598083
C         0.98970994596338    0.69796657614057    3.70467866243262
C         1.37651582982297    5.15027063577063    5.71732010733944
C         4.98924992333184    3.75513155145670    0.95910449304854
H         5.62601597050747    3.90201854966313    1.82162686062091
C         6.13571617281355    0.80177735157003    4.77537946078587
C         3.76614303939332    7.22725656977345    5.89563748726262
H         3.31763238691474    6.92117875621655    6.83035057570565
C         3.40273801112723    2.57441136627753    6.49334871130734
H         2.45919239999602    2.22025511090296    6.09884154987641
C         5.54012949645356    3.50975192873198   -0.29873977555100
H         6.61073682091894    3.45354242433973   -0.41343254180165
C         4.90930587256798    8.00698586182281    3.45956371119943
C        -0.24748601861159    3.93272808892373    1.92205178581681
H        -0.52323993875109    4.07951269792060    2.95735887943013
C         5.34123197969146    2.24741628409669    7.86243153610970
H         5.90011393478664    1.63555986865798    8.55496692906932
C         3.31175695636705    3.43955085567471   -1.18151949582195
C         1.06209180370692    4.78060064693681    7.01765194020970
H         1.77833888138511    4.23097477076045    7.61241065862361
C         3.92147519387211    0.39960286063669    0.84381915685814
H         4.79659721657392    0.46525399341368    1.47751116122743
C         5.04785062901366    1.30810713772431    4.08228279413356
H         5.09787503973264    2.29376569107214    3.63183903373893
C         6.01163607289633   -0.44971007180953    5.36968943614427
H         6.84581653261609   -0.86015921324146    5.91932702568641
C         4.37997925290402    8.46037559576703    5.77421253878658
H         4.41566507805732    9.12864096516394    6.62150369074539
C        -1.08319365231305    5.82003382564847    6.78837928547479
H        -2.04501911912862    6.07909473718660    7.20576812046972
C         4.83276981191954   -1.16845407906736    5.27575686514470
H         4.75417571945157   -2.13434252673394    5.75224967996245
C         0.45281946678858    5.85803669020291    4.95088442477216
H         0.71433607129205    6.13904804284176    3.93797942628021
C        -1.37657403587586   -0.18688897858751    4.82804812700300
H        -2.29894450848137   -0.53961733944773    5.26541566020277
C         4.06130069039300    0.03899644844850   -0.48810721479676
C         5.52107760950340    8.44000390023214    2.16343223990304
H         5.07977870984641    9.37834476193155    1.83154796829054
H         6.59073400734169    8.60502421447015    2.28625347578479
H         5.37025503685453    7.69063938243939    1.39008159702970
C        -0.64906320635078   -1.02109201259883    3.99655298034593
H        -1.00847146979038   -2.01805686485946    3.78915360304884
C         1.44540058178657    3.73216796919002    0.38849460773746
C        -0.77268099463169    6.19561455979127    5.49166522779269
H        -1.49092436872935    6.74829445055354    4.90411112942496
C         0.53585412735874    3.57043683739096   -0.67900301145531
C         5.12786388583959    4.25087421662562    6.57216233143659
H         5.52257050125759    5.20457838858435    6.24872046632593
C         1.03502140275926    3.36086485793666   -1.99638256492055
H         0.32154314639042    3.24583371226850   -2.79853841037248
C        -0.17192690960393    5.11132018231702    7.56441181971688
C         3.75113343396186   -0.65901862590454    4.57893587846988
H         2.82868459568557   -1.21705784061686    4.51790138758282
C         3.89549792752205    3.81802809550629    6.10022561126040
C        -0.83345965186980    3.60193052607867   -0.37039431618698
H        -1.56134654717160    3.48245734020878   -1.15914841884137
C         1.53861629491179    0.60548841831409    0.56811981718881
H         0.56357634407090    0.83101410407410    0.98032880382518
C         4.94711688445372    8.84418945058204    4.57060965179351
H         5.42256663690840    9.81040493358144    4.48713668922631
C         7.17121405152594    3.96018794873221    7.99256797780945
H         7.84177802546593    3.12913967389761    8.19660992297456
H         7.64923545180856    4.64044547270664    7.29189260285201
H         7.01379545400298    4.49808977441161    8.92767721939058
C        -1.22438139784702    3.77913443262126    0.93723105418353
H        -2.26731454941037    3.80350301950181    1.20932436284823
C         7.41282193048800    1.57631422679490    4.87162835239479
H         7.91365825316990    1.37771497039812    5.81536310856471
H         8.08852869948017    1.28360476844374    4.06717033589451
H         7.22419765230164    2.64396236873376    4.78944140567750
C         4.69923240446562    3.35433328034124   -1.37636154212129
H         5.08908090139902    3.17208990342588   -2.36653830887771
C         5.40944511261961   -0.27766301362634   -1.05656647014729
H         6.19813387497377    0.20167767314797   -0.48160113729585
H         5.57781454418151   -1.35430488668860   -1.02767449160363
H         5.47842260721937    0.04064762548525   -2.09416934373920
C         5.85925422250207    3.47312375431556    7.46110054171887
C        -0.51098243710991    4.72612207631571    8.97032305317363
H         0.13027650293875    3.92136524770794    9.32081832963821
H        -0.37500841403473    5.58178139602486    9.63170770900766
H        -1.54984850305230    4.41242505323024    9.04506017922713
C        -1.73067706345240    2.00247205220542    6.00727978428173
H        -2.78957192370940    1.96226772160632    5.76001445405268
H        -1.62036403031090    1.67652923696654    7.04143566291070
H        -1.38662726130335    3.03187282974491    5.93692318130563
C         2.92170714459391   -0.03912847307301   -1.28219441396576
H         3.01653987703685   -0.32070507504160   -2.32046269456237
C         2.36611215377325    3.29222968850512   -2.23613089170460
H         2.74057771406263    3.12005163541973   -3.23390919719255
C         4.12291390257820    1.79964937476664    7.38066698042572
H         3.73914933215438    0.83939903558865    7.69127676971608
C         1.67136394751688    0.23677082768135   -0.75695199842146
H         0.79616036673866    0.16967487674166   -1.38633641216531

