71
CSD_code = BELBAY | q = 1 | S = 0 | Stoichiometry = C32H35CuN2P(1+) | MND = 3
Cu        2.25817423399856    0.37412122022196    3.60043154685610
P         2.25298936947814   -1.58605268681895    2.52051262965906
N         1.06002328500263    1.54270096100788    4.77795096041156
N         3.69305355563099    1.70132649225371    4.20931519200290
C         3.77648234808594    3.11810659520197    1.32317795983485
H         4.66687138901992    3.72904153415326    1.30086858441388
C         1.08817458572093    3.72948312778469    5.80479912925906
C         0.45887148352158   -2.68347483942409    4.29066966589306
H         0.74671041880639   -1.77350934739332    4.82152589319946
H        -0.57654293919885   -2.91303102022960    4.53646708542562
H         1.07386888265653   -3.50568253348714    4.64802475904470
C         3.11623025606112    2.74762101972413    4.82637220478899
C         2.47213089655134   -1.49540246202256    0.70792578101106
C        -0.43669116889763   -1.49150921966177    2.28698955810962
H        -0.32108271450393   -0.53554225651115    2.79833347511818
H        -0.33856884783433   -1.33013958969051    1.21368938320060
H        -1.43875549014611   -1.86969208098253    2.48082006895205
C         2.67997133266866   -0.25446498897512    0.08992746662850
C         2.93179958029341   -0.21114194279524   -1.28017549424970
H         3.08843330643879    0.74978999851625   -1.74824926601531
C         1.72046332853150    2.65874099596700    5.13835089428184
C         0.61163943203377   -2.49424506705209    2.78019956659372
C         1.84438760412147    4.88881142748047    6.14267941700516
H         1.33741479996217    5.69743810995953    6.64682921420514
C         2.54119686008802   -2.65212395447771   -0.06898082133065
H         2.42017142682606   -3.61607977837407    0.39594503584677
C         2.66170875157353    1.04617296899585    0.79299410337619
C        -0.21655101576104    1.43421536801762    5.07626380856587
H        -0.70732213626080    0.51573292081451    4.78601358765178
C         4.97330229426235    1.76073913538360    3.91799607042503
H         5.40000757498759    0.89454514316175    3.43237318196529
C         3.16217891483815    4.97589063971730    5.84008087660036
H         3.73183054402429    5.85633679525399    6.09595904041339
C         2.77578970767583   -2.59151058194400   -1.42900090209341
H         2.81618355265649   -3.50097183472185   -2.00878509792899
C         5.77048834926982    2.86782972349701    4.21939476368241
H         6.81591355955465    2.86057768828290    3.95677733813436
C         3.94811100024914   -2.22369477800813    4.58542782453728
H         3.96359999639340   -1.14033743019653    4.71910685694627
H         3.14992754494276   -2.63147617116578    5.20006871062346
H         4.89072788158766   -2.62903587494901    4.94864372681425
C         3.75801463192651   -2.58478256768451    3.10837597492948
C         5.20184340830184    3.94759144027004    4.85120609728258
H         5.78583414496304    4.82050701814459    5.10193356170056
C         4.93382472703192   -2.01956722057006    2.30509061145786
H         4.87297057291982   -0.93046714897020    2.26127392544497
H         5.87647678527471   -2.29589272345795    2.77355958267921
H         4.93569173799286   -2.40027477638830    1.28602225947922
C        -0.27942879199257    3.59218834001938    6.09945284978066
H        -0.79898398313832    4.39160999234441    6.60609699968723
C         1.48981490427299    1.55667795343408    1.35086068944770
H         0.58024384814212    0.97821547810719    1.29232481539254
C         2.96934604156123   -1.36386494830185   -2.04011144684991
H         3.15694746219456   -1.30597158370979   -3.10097605297663
C        -0.93000414509251    2.43641864916494    5.73871369482247
H        -1.97623236650703    2.29343780189858    5.95498765298571
C         0.38508760422053   -3.81852515387508    2.05739896832140
H         0.31663453654737   -3.67373466778085    0.98257326211924
H         1.15582975360938   -4.55038352531985    2.27476794563540
H        -0.56526891636814   -4.23297186504199    2.39240873689817
C         1.46189840613953    2.84076533732725    1.87219849199091
H         0.53774321544465    3.23844396824651    2.26692317154307
C         3.71436868584765   -4.10213519687752    2.96990016368045
H         2.92843791563969   -4.53628455203144    3.58231681079990
H         3.58481054188708   -4.41561558358735    1.93827673783475
H         4.66333049984919   -4.51007201638273    3.31640322269283
C         3.80312609103489    1.84408835711203    0.78482000039056
H         4.71202723362921    1.46254522376138    0.34208152470965
C         2.60485046473859    3.62176976208933    1.86466389207834
H         2.57827251886147    4.62607810374407    2.26151548787276
C         3.83577873631248    3.90850267797864    5.17942658837553

