57
CSD_code = BELCUR | q = 0 | S = 0 | Stoichiometry = C29H24FNiPS | MND = 7
Ni        5.11726083340689    8.13987835671431    1.64727475562515
P         4.71003374492977    9.64596420639957    3.11520885962290
S         4.26407993216533    6.68625399274183    3.10471950123112
F        -1.48064714322267    6.86939114260883    2.01747328723618
C         5.02570284051419    8.19152515655961   -0.51407820195477
H         4.21191750240153    8.44565381644179   -1.17469405832070
C         5.36106243417004    6.91246337833500   -0.04503990051161
H         4.86600204827479    5.98811436722154   -0.30502476897893
C         6.64045340241724    6.99283057105038    0.62560711222472
H         7.21628654731614    6.14095768720444    0.95191357778880
C         7.03926137855422    8.32159542925570    0.62723759009026
H         7.99394271692203    8.70985982708263    0.94641130891876
C         5.99625008464132    9.08482901153506   -0.00594427515748
H         6.06484244601932   10.13531326245925   -0.25107906747360
C         2.55781549545524    6.72854412668909    2.76177759894245
C         1.66609738740391    6.07600079631298    3.61200721263031
H         2.04920786353507    5.54170568859607    4.46681482509308
C         0.31046535703530    6.11636993832354    3.35976620301401
H        -0.39330234550749    5.61952108305660    4.00880838927318
C        -0.14739173125515    6.81362544089737    2.25541661035313
C         0.71623827355591    7.46125029834106    1.39175899735740
H         0.32660944651114    7.99221329498657    0.53732548455554
C         2.07039962775300    7.41339241818053    1.65114461304650
H         2.78056177736449    7.92329097591746    0.99584681083775
C         5.13363840042882   11.40289852098746    2.81067053062083
C         6.42164507541207   11.63939477676592    2.33801791715851
H         7.06797074103710   10.79416233726504    2.13965411850071
C         6.87047353525401   12.92939534464178    2.13566412698778
H         7.87153198122856   13.10350178154750    1.76881173316773
C         6.03294770852745   14.00018050082525    2.40664124105527
H         6.37789975404967   15.01087295993912    2.24623911640694
C         4.75536837176359   13.77175446943484    2.88778600425682
H         4.10442779768878   14.60524777341843    3.10834542357874
C         4.30292820016461   12.47888787992508    3.09379403205190
H         3.30707188246658   12.31397846282569    3.47859687964890
C         5.76495781166738    9.40512468834445    4.57795677886990
C         6.75313334994897    8.43013370350501    4.53583051427871
H         6.82954292056544    7.79727516077836    3.65340880611574
C         7.60862317515996    8.26420839361091    5.60979654003895
H         8.37351727246311    7.50268454780081    5.57919227541857
C         7.48013092685576    9.07605032533161    6.72478954221148
H         8.14443403061656    8.94613782410294    7.56639966114932
C         6.50232554746392   10.05852881492230    6.76380760743252
H         6.40855159252195   10.69283344382517    7.63317445705792
C         5.64814495176530   10.23171124202259    5.69092239731146
H         4.88941358124568   11.00216309031283    5.71119698895470
C         3.01115704795873    9.71028560954403    3.74956416504919
C         2.65455208441005    9.14406793931743    4.96709551611057
H         3.41392336909903    8.70501274000727    5.59752338595274
C         1.32639380295560    9.12410079480606    5.35339291213367
H         1.05123497256810    8.67963642735296    6.29818773705654
C         0.35014704534925    9.65931855713001    4.52974073783112
H        -0.68574426962943    9.63520716933566    4.83278987925726
C         0.69954121749609   10.21021742584255    3.30757737816467
H        -0.06318628038404   10.61280225626771    2.65770908798351
C         2.02339296265688   10.22446312453757    2.91210639282713
H         2.30495951923507   10.62501764650085    1.94616364975856

