125
CSD_code = BELGOQ | q = 0 | S = 0 | Stoichiometry = C46H74N4Zn | MND = 4
Zn        3.38671999694046   14.14014655551846    4.97521669786131
N         4.01184603558986   15.81788335534744    5.85598136406602
N         5.15829474752854   14.82291646439979    4.29515343873214
N         2.77364653656424   12.34184724887712    5.57245055003242
N         1.70566498910730   13.48891807058516    4.06345789814378
C         6.19885682015870   16.88679138277598    5.39936604515975
C         5.70690750879799   18.31815363676578    5.30503687158963
C         6.06592453747983   18.98300772826562    6.41917183206061
C         6.68641080949594   18.05087788807678    7.36466689365303
C         6.71174512267257   16.81879636023584    6.82686123839757
C         7.46250887072962   16.81830314790226    4.52307002015009
H         8.12796970716649   17.62499954295963    4.83081183910519
H         7.22920066978083   16.95471860868341    3.47194989588002
H         7.98509003202619   15.87719123915235    4.66816075317665
C         5.00945379168036   18.80955848773928    4.08601204705633
H         4.49775061766645   19.74971234467101    4.27730906346795
H         4.27649095721287   18.07150330219352    3.76061160179024
H         5.71690993616519   18.96815682493873    3.26928665110981
C         5.86276659525169   20.42444337042604    6.74380605182301
H         5.39271671263875   20.95103106754927    5.91785727807716
H         6.81903606084675   20.90100189321876    6.95824978369225
H         5.23337943084028   20.53043327518863    7.62791643915807
C         7.16234825077703   18.47954195241225    8.71140433788899
H         7.54384684331800   17.63448626691752    9.27761193704101
H         6.35036164932769   18.93927735803850    9.27473802546013
H         7.95869789433442   19.21743803282426    8.61395078318543
C         7.24122493571114   15.54519608864817    7.38762705601504
H         8.28114220777802   15.39247408649510    7.09045164680546
H         6.65595033781517   14.70541666156099    7.01432649536601
H         7.20257524715364   15.54808186311779    8.47496341940061
C         0.76049827275116   11.19282462432355    4.70488979472062
C         1.41518990272269    9.87121797060491    4.35081777443055
C         1.06029060219863    8.94479499617009    5.25957744693135
C         0.27247291689475    9.57851626735662    6.32069666715401
C         0.15259132137857   10.89367754504991    6.06363880585732
C        -0.44900320562260   11.33190214219218    3.76247902094577
H        -1.04503030735283   10.42301855094102    3.84603332667859
H        -0.14104905467459   11.43955395421196    2.72763694564487
H        -1.07361976762676   12.17178862618082    4.05364779363358
C         2.22884310861124    9.72545071346339    3.11320783055781
H         2.85278985729650    8.83569731978849    3.15561619444691
H         2.86945974992501   10.59803316067642    2.98762174584374
H         1.58689930390911    9.64585606702078    2.23301490248939
C         1.40169777118240    7.49327588193480    5.28475195201382
H         1.99969189734127    7.21548834226558    4.42135587791373
H         0.49279683095502    6.89186473053046    5.28364337744166
H         1.96031342237238    7.24920320206172    6.18862683040594
C        -0.24414719576113    8.81793709802741    7.49492056499295
H        -0.77427196438667    9.47253292516677    8.18113986925818
H         0.57597791513098    8.33975399710893    8.03096839213523
H        -0.92762652300670    8.03486602134111    7.16694911097399
C        -0.52628130794033   11.95965220219783    6.84988546940238
H        -0.54177995818658   11.71403634018410    7.90951028914858
H        -1.55871047539522   12.09225683034950    6.51965333691635
H        -0.00300175200147   12.90544104997037    6.71468533347268
C         3.59732517174082   16.70100071920383    6.91146429609213
H         4.25284013413328   17.56827832296125    6.99836251892256
C         3.57673606582720   15.95532176479748    8.25057033079902
H         4.58468081042744   15.61246924927044    8.48677567021801
H         2.93446491102745   15.07762104234018    8.14435231653127
C         3.05508627378056   16.85497043707662    9.36508549993447
H         3.04495292645896   16.30692995415452   10.31018379306864
H         3.72663262811283   17.70932267842720    9.48123141654034
C         1.65203700230482   17.35505211584855    9.03758715163301
H         1.29374905811793   18.01424970731479    9.83203888591400
H         0.97141762292409   16.50296745226571    8.97559773065288
C         1.65386922399224   18.09627522106876    7.70465065389372
H         2.28975013546965   18.98174505598400    7.78371486831243
H         0.64276797003665   18.43219014324047    7.46262540977587
C         2.18208784443684   17.19793585408152    6.59221968810241
H         1.53362957524106   16.32638690278955    6.46746934985000
H         2.19962353927239   17.74135811442848    5.64554203549804
C         5.94820266285723   14.56280989748183    3.12197150936320
H         7.01706721578620   14.75757871114823    3.25991405988176
C         5.79471780902629   13.07261167541710    2.79661694847178
H         6.19403098347316   12.48613445438325    3.62602543840404
H         4.72710828518534   12.84918151356878    2.71983031081595
C         6.50648765733555   12.70385944001250    1.49959111295960
H         7.57985542594363   12.87881839706377    1.61081183771784
H         6.36292474522335   11.64154279162883    1.29015924879909
C         5.97872183334021   13.53998970677504    0.33828028216779
H         4.91960317206710   13.32010285310814    0.18532100115242
H         6.51066466056377   13.28313047915153   -0.58068868237792
C         6.14837070658219   15.02478584068502    0.64187412771299
H         5.75339067213056   15.62301735893420   -0.18297492676811
H         7.21279459879943   15.25469859526104    0.73998193905860
C         5.42865597923438   15.39028407295406    1.93496258759326
H         4.35834804876052   15.19454099833677    1.83247347055364
H         5.54618542932022   16.45533068935686    2.14471337926384
C         3.17680425686160   11.32094907256288    6.49990181764660
H         2.46201164933517   10.49937338633448    6.54478819060013
C         3.30257201194171   11.93428605908998    7.89872738167562
H         2.32836516648372   12.31573415077572    8.21028509332238
H         3.99478646694898   12.77831670068287    7.84162714852584
C         3.80921158301107   10.90577378436079    8.90319072064700
H         3.89832999579088   11.36429208798486    9.89084000717881
H         3.08678811505164   10.08893372699439    8.97769548211478
C         5.15911609125813   10.34841013115777    8.46367782819952
H         5.50547347768484    9.59787431374305    9.17837065487150
H         5.89330510225342   11.15697018122010    8.44330446537719
C         5.04828184422179    9.73371046010130    7.07231571024293
H         4.35425687949284    8.88999357606064    7.10303238733508
H         6.02166292597871    9.35358335727118    6.75314231483586
C         4.53957235190480   10.76328838693985    6.07010699767122
H         5.24155964206742   11.59804629256945    5.99483509461216
H         4.44546996420358   10.31121384315477    5.08153381357552
C         0.93660655316464   13.92590835822764    2.93024321651835
H        -0.11728067069366   13.63312947956094    2.97893524579518
C         1.55334813489183   13.39984382191273    1.62385423570902
H         2.60558361514853   13.69371103388056    1.60749803983286
H         1.51868653296527   12.30873240413340    1.60733623822429
C         0.83963063816309   13.96794130589005    0.40252016866446
H         1.30168502537668   13.58087682392028   -0.50907324170338
H        -0.20531185095049   13.64619745932097    0.40849199096695
C         0.89891074391277   15.49172723141154    0.41162237186318
H         1.94102746747442   15.81378285738409    0.34985503747489
H         0.37203880249696   15.89177915744878   -0.45771855630404
C         0.27750942618996   16.03282742738846    1.69513561485719
H        -0.78114614156011   15.76189089910635    1.72489949010411
H         0.34200665053364   17.12301399764922    1.71046304607538
C         0.98321288264328   15.45866910192872    2.91879971922045
H         0.51925416470008   15.83342791139962    3.83300833476516
H         2.03212110612706   15.76810575770268    2.93133116811556
C         5.12076156590554   15.83750241755333    5.13920504226910
C         1.74377783596537   12.36004616763255    4.74583586022272

