97
CSD_code = BELGUW | q = 0 | S = 0 | Stoichiometry = C34H58N4Zn | MND = 4
Zn        1.74699491636739    6.41099951238775    7.25636721259924
N         0.60903880940645    6.53535557755000    5.62086910059402
N         2.78043443415759    6.42634426506810    5.51776903490571
N         1.66122814372687    5.15671159959019    8.83366001044739
N         1.75916762748650    7.32281553827051    9.03748827588478
C         1.48567816210482    6.53497219333243    3.30627236749033
C         0.65618744359877    5.37339385100452    2.78985614737512
C        -0.31044300891870    5.84644421829617    1.98260981589983
C        -0.28960926325924    7.31181880901494    2.00387885313808
C         0.69271942522707    7.73371190334428    2.82068512547250
C         2.76266482299372    6.50995233436910    2.44553404829941
H         3.30830186483833    5.58034744991398    2.58140839824649
H         3.40875762236561    7.35482043285240    2.66061429339976
H         2.46068954273076    6.57130549215775    1.39983773787397
C         1.02310521025939    3.96709416013342    3.11240263170459
H         0.15733224026312    3.31176589138310    3.04493529685614
H         1.42729248562366    3.91326419022665    4.12234853474252
H         1.78216196116110    3.59283739595116    2.42199766351571
C        -1.30977776887538    5.07297413300964    1.19086705292778
H        -1.17888159098383    4.00421776695741    1.33569666945880
H        -1.20240072841645    5.29308494882652    0.12879343844672
H        -2.32294074081355    5.34513896015861    1.48673758629718
C        -1.27170203045424    8.13081528311655    1.23654923578572
H        -1.08011731516868    9.19275165791088    1.36236178534717
H        -2.28718422209317    7.91774999687720    1.57123227697890
H        -1.21381039069692    7.89233045821278    0.17483328413079
C         1.09613422315567    9.11767724707867    3.19003733799448
H         0.28927958293137    9.82407711914144    3.00954879844346
H         1.96321262696432    9.43827432323609    2.60822121601631
H         1.36544750521773    9.15342836981169    4.24548911157831
C         1.47474288621538    6.13745887325320   11.19357153380090
C         2.56783720135988    6.85358354663262   11.96306488400321
C         2.00507257062298    7.71644483155163   12.82957129968967
C         0.55481297750757    7.74063396086719   12.62111438495125
C         0.23076177122713    6.88994269163815   11.63140109968692
C         1.34129959125432    4.75289460641664   11.85444661088366
H         1.22515690297211    4.90531067214986   12.92759547833162
H         2.22392789495200    4.14273253373535   11.69353973074579
H         0.45961395234770    4.23181652190489   11.49251943311067
C         4.00143102158738    6.51083013185038   11.75819463215603
H         4.65147844682287    7.28755935058849   12.15401217583077
H         4.20296381813021    6.39390510614494   10.69365967859638
H         4.25300849049235    5.57194540023742   12.25625192506796
C         2.67611559847608    8.57934152320158   13.84411077648704
H         3.74949291070235    8.41160667168451   13.85420404427318
H         2.28387523595246    8.36606445294842   14.83820936468694
H         2.48925022051056    9.63213884248489   13.63131808970711
C        -0.34903012110967    8.62792486173671   13.40823749449161
H        -1.38127294448306    8.51582227418385   13.08865321865978
H        -0.05691599287486    9.67108680090606   13.28777069091504
H        -0.28775978971059    8.38476533001010   14.46890982963673
C        -1.10336809133283    6.55637650354273   11.06048688404297
H        -1.53819122286227    5.69257251667901   11.56825074818972
H        -1.00372346689893    6.31152398882246   10.00353169308322
H        -1.79617653566133    7.38848750597060   11.16695896143930
C        -0.79098676914075    6.51528241253102    5.28844934631807
H        -0.95700179863086    6.51366518364913    4.21082137224501
C        -1.41970384098549    5.25276521437269    5.88385851372350
H        -0.98352711263639    4.36761300444112    5.42845683869973
H        -2.49385608696830    5.24341682133721    5.71327981742196
H        -1.22641463541348    5.22619619691037    6.95509446932723
C        -1.45434660858894    7.75930360308669    5.88539388731719
H        -1.28168789431344    7.78215266204450    6.95948633326441
H        -2.52516909434762    7.74785317023275    5.69594995351292
H        -1.03107485650526    8.65792039796790    5.44403480125100
C         4.16521170056535    6.57431401799369    5.15662143797844
H         4.40789462134091    6.11854353611503    4.19167960962259
C         4.55926039343969    8.05741907721699    5.13369303026456
H         3.95232837056587    8.61053053457809    4.42104415638719
H         5.60739487200895    8.17007785462398    4.86469754565063
H         4.39966648439116    8.48630409850412    6.12076133247662
C         4.98892293605122    5.84622338283854    6.22075226734767
H         4.73048382427392    6.23371678020560    7.20533454243088
H         6.05301717713245    5.98856458253331    6.04567761240382
H         4.76906934062418    4.78139895505250    6.19740094341769
C         1.84797995240263    3.74185686622691    9.02020867445235
H         1.26488915740884    3.33671580016871    9.85426976331131
C         3.33365855249833    3.41891405008056    9.23255237255068
H         3.90098731074814    3.75523474873246    8.36771287678350
H         3.47684190501690    2.34744810454684    9.35623826469083
H         3.72350340358392    3.92827728938363   10.11000263988884
C         1.35801481597690    3.05169618113557    7.74597068792037
H         0.29085143565686    3.21228422072487    7.61889022710102
H         1.55108571700163    1.98206323684876    7.79159707495529
H         1.87418200030175    3.47558216823512    6.88605045821487
C         1.74402195934553    8.66290046699779    9.56200244718108
H         1.79587799231342    8.67270891990951   10.65179744535688
C         2.97107415384645    9.39696143120624    9.01387061577299
H         3.88195696105086    8.90556490680666    9.34720515245394
H         2.98395710868172   10.42913024352936    9.35587012671545
H         2.94359901095426    9.38198144105677    7.92555141562056
C         0.46843415163766    9.38123581639548    9.11455389592840
H         0.40329625057558    9.35984209188146    8.02825539976697
H         0.47766799092960   10.41551519527391    9.45086563706489
H        -0.40622497539717    8.88751239831596    9.52792905181764
C         1.66045478581925    6.50839326520114    4.82353486687817
C         1.65584441965388    6.17157509269123    9.67709609021270

