40
CSD_code = BELJUZ | q = 0 | S = 0 | Stoichiometry = C15H21ClFeO2 | MND = 8
Fe        3.57404119781609    1.48069439485414    2.10454484765278
Cl        4.55937309181449   -0.30399837490514    2.75882515575147
C         5.41088614193647    2.94121560752203    2.35319822094102
C         4.19658331746913    3.65866408242166    2.34081611266165
H         3.85252043229835    4.31783815247538    3.11953928384035
C         3.53911099560971    3.45627036652203    1.08779546802717
C         4.41911314201913    2.66134061728194    0.29046879712105
H         4.28365369447792    2.41074169234604   -0.74720739414697
C         5.53830117499572    2.32734906220181    1.06460127788931
H         6.38586922793108    1.76006874202298    0.72041005993015
C         6.43879505880609    2.96631047357603    3.45792555924044
C         7.07780566729680    4.36370805605416    3.48229402502455
H         7.84151754551697    4.40942618099264    4.25497428474982
H         6.33169240025447    5.12773269844160    3.68889779063532
H         7.54212499508853    4.58790682871778    2.52407247501195
C         7.51860856200521    1.90854847119967    3.21998701694428
H         8.21015838701025    1.89212433041042    4.05910897774610
H         8.08845160792876    2.12584322709508    2.31917957511461
H         7.06629433329577    0.92360971039486    3.12880203273656
C         5.75901339798798    2.68251465646540    4.80260959144947
H         6.49451911785881    2.69338781930123    5.60341725707868
H         5.28858928925670    1.70096455522191    4.77814522928213
H         4.99938037975853    3.42689757307891    5.02860145906693
C         2.32849615252032    4.21887884126136    0.60619658576892
C         2.76805041771891    5.66321764807831    0.31884698667874
H         1.92763653494902    6.24231864495217   -0.05616341678265
H         3.55946931381336    5.67834252970729   -0.42712583890061
H         3.14036613634803    6.13894332191206    1.22275170869649
C         1.76390762671446    3.59476108200157   -0.67187037693865
H         0.84767406466955    4.10427539809100   -0.96030176331080
H         1.53660648747463    2.54305365183559   -0.51198549731648
H         2.46859151173403    3.68055865735002   -1.49486966224585
C         1.23713000474110    4.21721538496875    1.68079202075329
H         0.36780887665061    4.77005455181568    1.33311027686951
H         1.58596202471398    4.67871550753024    2.60017007399575
H         0.93535449413264    3.19456607146802    1.90246634855358
C         2.29315497515657    0.60446978209283    1.30567001222536
O         1.42100105725361    0.01565474306826    0.85720860410690
C         2.48166339074531    1.52346132921072    3.45858127592509
O         1.73702377223138    1.52115393096347    4.32611555817334

