109
CSD_code = BELMUB | q = 0 | S = 0 | Stoichiometry = C32H52B20P2PtSi2 | MND = 4
Pt        2.85549080333462    3.50446255491220   20.25196981175276
P         2.10360790081770    1.58320953502764   19.05782461503723
P         0.71729676878100    4.53691273045515   20.44854402847479
Si        4.94275901162372    2.42342548846272   20.23191449020823
Si        3.65304126988185    5.47207469628961   21.26073554260547
C         4.57603823816669    0.51881532741572   20.06183574668298
C         3.14270078414883    0.10380989238226   19.44770392995356
C         6.09991868033492    2.86387546065215   18.75176592003282
H         6.49766789177095    3.86232208696583   18.89215872891105
H         5.59121534259131    2.84780738613389   17.79343411529422
H         6.93909636509088    2.17833315420137   18.69243359446442
C         6.09268416466537    2.53431931959684   21.76890905945914
H         6.95609973628534    1.88652186896695   21.66217199452253
H         5.58474219933839    2.26869119989409   22.68887581981310
H         6.45359201581406    3.54969837987865   21.87778012467902
C         2.38477247011276    1.95983284026735   17.29238003096249
C         2.85967435393488    3.24267728946894   17.02894593717772
H         3.06826602917386    3.91328269377597   17.86342922554407
C         3.09119605769992    3.66401515578465   15.73291052794859
H         3.45831456557003    4.66250327205109   15.54748929138286
C         2.85528648272796    2.79917964105912   14.67738111952921
H         3.03420076054534    3.12072110261512   13.66238259888374
C         2.40060268992429    1.51462585590753   14.92809949106803
H         2.23010403453464    0.83306638539520   14.10783964511503
C         2.16535933396729    1.09403052761986   16.22497544202074
H         1.83171209212179    0.08382702577914   16.40236256065087
C         0.38383773174424    0.97476978534282   19.13431721542727
C        -0.13180692625568    0.73721936746885   20.40891663070088
H         0.49871952397992    0.87431412865034   21.27562863925732
C        -1.43787502058701    0.32450795603939   20.57828200110485
H        -1.81699340773963    0.13762238716617   21.57209396833295
C        -2.25705986611624    0.15237549607367   19.47411254996029
H        -3.27646291390586   -0.17960389596863   19.60115733544152
C        -1.76715215200675    0.42450180553879   18.20918971926832
H        -2.40650854324790    0.31301223376197   17.34602755221373
C        -0.45952226141687    0.84390083510784   18.03770359352652
H        -0.10742074292699    1.07927451037775   17.04537098890298
C         2.35018337734331    6.86421963548695   20.86542524986179
C         0.86135368274461    6.38042075871841   20.47208521954408
C         3.79976179123952    5.42928415665069   23.18422802852541
H         4.64349532102167    4.80993543530767   23.46583381104410
H         2.91951635193140    5.02123631963886   23.67007227852246
H         3.96923384657562    6.42271810037907   23.58677508984686
C         5.32380364832756    6.22844125444450   20.68316099270432
H         5.50175552557995    7.19185728194604   21.14865028095999
H         5.37169058794677    6.36036596693367   19.60834019218527
H         6.13571480912454    5.57010636440175   20.96684038263558
C         0.08149428402149    4.04972660874344   22.09045125201279
C         0.89230038528281    3.16794936976512   22.80161684274800
H         1.84587325104839    2.85921315308867   22.37155394797641
C         0.51596735818082    2.70188753655187   24.04740589663676
H         1.15636381392176    2.01738577547865   24.58357454212742
C        -0.68104902896089    3.12028882156276   24.60407395380632
H        -0.98161042434007    2.76116877747282   25.57686394682602
C        -1.48733482555997    4.01099897808315   23.91397800806859
H        -2.41445565454333    4.35011726244302   24.35200948685713
C        -1.11279172099360    4.47433682762563   22.66529951615042
H        -1.74346525843059    5.18251659342268   22.15141505764662
C        -0.65520204058476    4.18843233714327   19.29641201724366
C        -0.38220825073776    4.35963200981594   17.93877292639933
H         0.58422515750831    4.73073796314211   17.62958156600747
C        -1.33304228807449    4.06441794113184   16.98300451966204
H        -1.10600045772109    4.21049796343506   15.93733893716333
C        -2.57316720065674    3.58090127896602   17.36792986062533
H        -3.32289643881853    3.35667013055280   16.62420763274207
C        -2.83977438827554    3.37071011080259   18.70913476819686
H        -3.79676613234449    2.97445569234559   19.01469720158584
C        -1.88566503121205    3.66062713921362   19.66869810485384
H        -2.10391881430778    3.46058588082615   20.70624588184438
B         4.53428236643813   -0.17202056260153   18.49627501055733
H         4.70719532962868    0.54577892923222   17.58232448248341
B         5.76834942330275   -0.62946882145994   19.65169275881359
H         6.86858480567375   -0.24963137245479   19.48558374288410
B         5.07497929075597   -0.61123531129487   21.26344686103250
H         5.70906171226242   -0.22452510928733   22.17076133786857
B         3.40528794963700   -0.10822531769668   21.12778328811391
H         2.88699294110485    0.66797764252158   21.84902388617861
B         3.22791926860413   -1.36054507078379   18.57121830225186
H         2.50856361562457   -1.50801934686289   17.65190608067337
B         4.92420969477143   -1.87289189572146   18.68840680934716
H         5.45448706892945   -2.47505955506752   17.82732633821961
B         5.26463006142151   -2.15524211737404   20.42026944455371
H         6.05010162099635   -2.95705434971060   20.77401892558725
B         3.77380438350261   -1.81348440329154   21.35502213135139
H         3.50089542248144   -2.36814927820714   22.35650807305627
B         2.53454272898454   -1.32368002615811   20.19138597390312
H         1.36903738149918   -1.43400239576208   20.31506601417254
B         3.68018332568384   -2.60023076963763   19.75187250373784
H         3.32743520222240   -3.71608644674247   19.62303688970452
B         1.08494950701517    7.14573163095608   21.98287570289019
H         1.04366094967353    6.46308061809149   22.93833540490803
B         2.30670146691792    8.36295667510128   21.67889597664820
H         3.11890122041531    8.56880596972211   22.50367273369745
B         2.77994925532014    8.28564019217874   19.99115195225771
H         3.90180404119572    8.44247263951206   19.68843699830198
B         1.87631773369452    6.99273293664840   19.23488362842017
H         2.34448239607326    6.20513344783124   18.49205801416960
B        -0.32410363783656    7.50254030990275   20.97640537618665
H        -1.38628164211480    7.09913001337058   21.28161022612541
B         0.58142303003735    8.81305379848305   21.76098071471890
H         0.13080995077095    9.43497574978129   22.65283232877541
B         1.63995843141725    9.53377634226809   20.51406142268205
H         1.94206996204104   10.67090118397828   20.54022927536730
B         1.37721871023108    8.65918559345515   18.97146911209549
H         1.48620899281762    9.16895501815254   17.91630702779108
B         0.16302464526893    7.41122638263909   19.28468800597844
H        -0.57855340121708    6.93706608797095   18.50290809453953
B         0.00785825766671    8.98896413897292   20.07328246822032
H        -0.86112416375672    9.72958794287403   19.78605570439273

