33
CSD_code = BELMEM | q = 1 | S = 0 | Stoichiometry = C13H15ClN3Pd(1+) | MND = 4
Pd        4.03900131196404   11.69491294681282   12.20280370446778
Cl        1.82990247578669   11.91636977053972   12.08959235325477
N         4.42721560227245   13.64038335517037   12.20201653664521
C         3.60597947493528   14.64871574662344   12.48833935736824
H         2.56851826218781   14.38717898951351   12.66379384475191
C         4.04553162089552   15.96189720867960   12.54601068653894
H         3.34832593477536   16.75142697391247   12.77272638979766
C         5.38330377877248   16.23186684010974   12.30813163545022
H         5.75984432102062   17.24170994444775   12.34686126596551
C         6.23786238755871   15.17662571969147   12.01866070922100
H         7.28495111792047   15.35235427730378   11.82888413081217
C         5.73086729944141   13.88814458936567   11.96852297524620
N         4.03438140902370    9.71124974606749   12.17847342878273
C         3.02984145603977    8.88196063199750   12.45462405227900
H         2.06427788738696    9.34126902261112   12.63428123459498
C         3.20117839880051    7.50723115732114   12.49718354414743
H         2.36139260893251    6.86869574606665   12.71607947764410
C         4.45945460015839    6.98088362030439   12.25482961882398
H         4.62914565267778    5.91618323679842   12.28193716982784
C         5.50595405835000    7.84962507623929   11.97595855069716
H         6.49793864751842    7.47276319212667   11.78304683912579
C         5.26358276444866    9.21332239544097   11.94057101409212
N         6.10218313258309   11.48820946380447   12.28248383492470
C         6.59416060658148   12.69476944122809   11.60270296586492
H         6.51491639336477   12.55158664201533   10.51643055217333
H         7.64713618406743   12.89303329852650   11.84476993092834
C         6.34576207110389   10.21675253784414   11.58674048509801
H         7.33891713967194    9.81130631523499   11.82325719802248
H         6.29560049499302   10.38642327817238   10.50251396495059
C         6.57724354534210   11.43168827744008   13.66544765490386
H         6.12378394920449   10.58226632461227   14.18154863280262
H         6.30035614436856   12.34738680432923   14.19298162948686
H         7.66808926785173   11.32230742964860   13.70129463130937

