33
CSD_code = BELMOW | q = 1 | S = 0 | Stoichiometry = C13H15ClN3Pt(1+) | MND = 4
Pt        3.45539761851810    1.36106092418903    1.92746076228219
Cl        5.67944749912349    1.13508937933573    2.03665076077809
N         3.06788614786439   -0.57708726383141    1.92480911526459
C         3.88746950233238   -1.58721213155181    1.63437324673316
C         3.45193240119222   -2.90089887304793    1.59540862771234
C         2.11943113392949   -3.17437606802398    1.85868595754318
C         1.26638126515759   -2.11924873050196    2.15305939963815
C         1.76818135512202   -0.82946019706738    2.18200207790239
N         3.46402429034830    3.33745480442432    1.95649510120707
C         4.46937932599342    4.16741325381376    1.67950336075849
C         4.30461049929644    5.54196131075723    1.65725301957926
C         3.05242907318904    6.07220341621367    1.92297856094461
C         2.00536797768228    5.20476028017268    2.20390298023249
C         2.24006985584839    3.84065916891961    2.21710401180845
N         1.39843817162704    1.56950976555216    1.86674363046267
C         1.15868985678737    2.83919291135719    2.56923387259904
C         0.90738360547307    0.36254739699107    2.54879777468395
C         0.89060056143668    1.63235261528378    0.49576316737480
H         4.91942650095580   -1.32461985154990    1.43964064998276
H         4.14802081522358   -3.68980396945205    1.36334153170222
H         1.74611337103318   -4.18572654377951    1.83554292672479
H         0.22340279911977   -2.29583444096353    2.36329734411677
H         5.42895430961621    3.70710892212642    1.48186062461041
H         5.14460557795683    6.17918778893626    1.43558423109375
H         2.88830511035622    7.13792681406657    1.91205302273202
H         1.01804371414192    5.58359984753560    2.41536689210859
H         0.16644638985924    3.24580832165241    2.33805262384409
H         1.20924969840076    2.66533983670446    3.65071144108638
H        -0.14515474832219    0.16601669168129    2.31002696406243
H         0.98650454110504    0.50594232297217    3.63298998957522
H         1.33006422509487    2.48164777620265   -0.02759346589990
H        -0.19934851000023    1.74284350378882    0.48829598505302
H         1.15154606453649    0.72084101709156   -0.04209618829743

