33
CSD_code = BELMUC | q = 1 | S = 0 | Stoichiometry = C13H15ClN3Pt(1+) | MND = 4
Pt        2.73920601467784    1.00732485178681    5.20585204804000
Cl        2.14028597150736   -1.06043938987896    5.81879560344139
N         3.32464272643314    2.90761118772116    4.63712428541358
N         3.11443733232291    1.64683731119001    7.03787180155834
N         2.50936798327269    0.70445211845438    3.26635558921847
C         2.19565952345197    3.83740166363082    4.58554912930679
H         2.52722438398675    4.83713916635936    4.28406578168457
H         1.72392455726750    3.90797022755455    5.56581923080641
H         1.45403623904126    3.48564914436504    3.86813376987452
C         4.27883382494566    3.30493078044959    5.68323903842761
H         4.42262431519396    4.39226102441707    5.70493140128859
H         5.25028847327253    2.83950708989010    5.47778288924116
C         3.80936268218121    2.80284911322163    7.03381396961423
C         3.08601288516702    1.67934807814960    2.53398089863886
C         3.89597066481208    2.70828537123483    3.29674661541786
H         4.91570600043167    2.31755502414834    3.39630184317544
H         3.94787418127912    3.65033700218249    2.73708885380438
C         4.11119211591620    3.46465100905320    8.21150373246809
H         4.66821352733570    4.38775524841937    8.18319699551533
C         2.97456905969155    1.70407003962812    1.15451411588617
H         3.44378670747413    2.49416655646619    0.58989079047221
C         3.69593151681259    2.92411166251391    9.42114584321890
H         3.92587812682845    3.42473062782310   10.34818619866681
C         2.26101010080543    0.70121045468249    0.51180566021152
H         2.16725807904280    0.70318784015708   -0.56245479182765
C         2.98332193119970    1.73598072874265    9.41088949222529
H         2.64326368242647    1.28116575622434   10.32644243386039
C         1.67493540588343   -0.29481001601437    1.27602910255159
H         1.11414775571343   -1.09260855065662    0.81804848907066
C         2.70838990053381    1.12935491432305    8.19699261305966
H         2.15810371702243    0.19897430242380    8.13878689599068
C         1.81824130592857   -0.25569689986739    2.65263705817918
H         1.38129930814095   -1.01296343879996    3.29093262150212

