81
CSD_code = BELVEW | q = 0 | S = 0 | Stoichiometry = C38H36N2NiO4 | MND = 4
Ni        7.02859862443068  -14.85165528799398    3.48855536916223
O        12.81521365636427  -12.89516660565503    0.90157858386844
O         5.32318577609897  -14.21729724682184    3.60370225537114
N         7.40833764634027  -13.52769540529473    2.09872943610414
C        13.34876631223740  -13.25929831222478   -0.34587513468973
H        13.22885390037097  -14.33008451965764   -0.54205065614322
H        14.41035248916925  -13.02177053245806   -0.29489928499848
H        12.89097266546829  -12.69056617051834   -1.16266016603247
C        11.48235970380645  -13.09450676671378    1.12091610926195
C        10.59654111642485  -13.64416492860815    0.20211669519248
H        10.93079932107592  -13.96841070955590   -0.77124045678173
C         9.25989725299770  -13.79292146069304    0.53156082782699
H         8.58084936642098  -14.23909632007799   -0.18063792009808
C         8.77782985958283  -13.38891503834891    1.77186916322752
C         9.67556302149169  -12.84918133089887    2.69470930488324
H         9.30903853235094  -12.55217861110398    3.66763861436546
C        11.00660939934854  -12.70801017974811    2.37530835490293
H        11.70892339024800  -12.29686785947302    3.08295181213270
C         7.02494630364164  -11.71298819326027    0.49874310057680
H         8.05973424967087  -11.45054987728861    0.70240969073290
H         6.41454556542497  -10.81791934159020    0.58506910090878
H         6.96102759915599  -12.07562534744645   -0.52629861693882
C         6.53667760397242  -12.76590412627182    1.46559470541616
C         5.14603004308158  -12.83377714570296    1.68513878995994
C         4.17823160657313  -12.08406728462630    0.79909974949455
H         3.97661026445610  -11.08639427290727    1.20833536344510
H         4.59415590068220  -11.96011901467745   -0.20060396025301
C         2.86138880071651  -12.85109523792775    0.68993746298964
H         2.15098078720288  -12.30479649455281    0.06664539038638
H         3.05032277655185  -13.82079723049705    0.21746046073862
C         2.30027469617208  -13.07410585049293    2.05958509651383
C         3.19331865232679  -13.39545080913762    3.08334110554386
C         4.63692341094004  -13.52269838583291    2.78613518553980
C         2.72386736243883  -13.59708709369895    4.37631031767312
H         3.43465622428278  -13.83063678264599    5.15319770952937
C         1.37364628547560  -13.49092285636447    4.64865331934776
H         1.01045460599639  -13.64007509107685    5.65456681862061
C         0.48351159832438  -13.19151194849831    3.63106676492600
H        -0.57359525447688  -13.11476840791005    3.84021461439057
C         0.94819141856012  -12.98180223661937    2.34297820267813
H         0.25295738783865  -12.74108442393878    1.55073085498467
O         1.24022140204691  -16.81069840727161    6.06815657842209
O         8.73436711044339  -15.48531205723465    3.37434000386664
N         6.64829806103397  -16.17643539456644    4.87743267257680
C         0.70536257168620  -16.44844173765454    7.31559555000547
H         0.82494944686688  -15.37793148875889    7.51342921243268
H        -0.35614267413523  -16.68601281750139    7.26319374878305
H         1.16239608314782  -17.01831203076907    8.13201401594662
C         2.57330642832468  -16.61107945843032    5.85052895268238
C         3.45816251811648  -16.06271309976459    6.77102003541369
H         3.12286888412470  -15.73978513227821    7.74445649074660
C         4.79515311314986  -15.91350888331056    6.44319775909857
H         5.47342029774640  -15.46824506338419    7.15670773047963
C         5.27854788238867  -16.31584135459706    5.20286309815278
C         4.38178747855362  -16.85436715784598    4.27836170607194
H         4.74936141630617  -17.15007888082858    3.30542581039640
C         3.05040076622646  -16.99592178316291    4.59613900434595
H         2.34883796740682  -17.40611290032907    3.88720150831983
C         7.03110718747741  -17.99188418656686    6.47674003547374
H         5.99653380334372  -18.25449445574831    6.27220153351214
H         7.64183473490719  -18.88671552676836    6.39023927753329
H         7.09424016751821  -17.62990749693999    7.50206255779172
C         7.51972342802423  -16.93820896892963    5.51089621434580
C         8.91051154894148  -16.86966561862550    5.29244915612901
C         9.87790026867857  -17.61944438934718    6.17888067801478
H        10.08025308101015  -18.61682775580464    5.76929622567684
H         9.46121481023325  -17.74407060791240    7.17817911827781
C        11.19433786552332  -16.85193235874035    6.28949252621466
H        11.90446397013161  -17.39820967494052    6.91312812551304
H        11.00462336330457  -15.88250949720589    6.76223578681121
C        11.75645514854033  -16.62812568616611    4.92038661140579
C        10.86410163664820  -16.30669024832614    3.89604845609332
C         9.42021199027952  -16.18004639483851    4.19216433231114
C        11.33450655453123  -16.10437807138096    2.60352922453571
H        10.62423553394827  -15.87086484157677    1.82615886466151
C        12.68499297625077  -16.20987043725983    2.33222471160438
H        13.04895470669088  -16.06007382586002    1.32669135768511
C        13.57442728897693  -16.50934942304828    3.35040546022479
H        14.63173359221738  -16.58558318566435    3.14207437068511
C        13.10879776846056  -16.71980129951444    4.63803156373628
H        13.80348989768638  -16.96058366233738    5.43073579926669

