51
CSD_code = BELVET | q = 0 | S = 0 | Stoichiometry = C12H26CoO9P3 | MND = 8
Co        2.22545076411012    4.20582982351518    1.21174081021056
P         0.59270618692153    4.69559536019775    2.53674334368604
P         2.50991248767500    2.36220472910742    2.31615931630558
P         0.92481669069033    3.13650745574557   -0.15796145765094
O        -0.48802126398523    3.74801451125660    2.88319679776761
O        -0.02743065893426    6.03133006181380    1.82419975772192
O         1.15062511281532    5.40544997056448    3.90092088891577
O         3.40161051464680    2.32354573467200    3.49295272525439
O         1.20817166697837    1.43573819394686    2.60944617197006
O         3.10422429734288    1.54506852027250    1.03300079307639
O         0.19573680775825    1.75096590777068    0.04825133607185
O         1.85188438775865    2.77841239225309   -1.41816214210292
O        -0.34870433780784    3.91225121772120   -0.81754280272449
C        -1.27958200197562    6.49499401176793    2.30200733997159
C         1.42140104185588    4.61230271634948    5.03876568143988
C         0.76901400126358    1.18477290382202    3.92969803623153
C         3.67568642701847    0.27260645118425    1.28428120702536
C        -1.04085522978728    1.57404723660073    0.74184127412329
C         1.36281727665387    1.95811436744247   -2.47351485262830
C        -0.29762228267810    5.25498965024281   -1.25825604137504
C         3.87218491992008    4.51480844800834   -0.06674186594048
C         4.31793981271146    4.38192568549821    1.25536618957590
C         3.67123481231080    5.37911206595303    2.03418252335806
C         2.89837539208075    6.19123456689750    1.15901441980356
C         2.99399583055860    5.63795197626667   -0.12900475158858
H        -1.75473237085001    7.04412632258981    1.48845081386351
H        -1.13574905140998    7.15283797445196    3.16093351891304
H        -1.90475309259573    5.65022387065101    2.59744063999045
H         1.60898840389363    5.30414084877433    5.86078455691066
H         2.29622774161641    3.98110582981247    4.87413551590297
H         0.56278322318798    3.98013566795293    5.27420476316820
H        -0.07246242182225    1.83706019528254    4.16430499308350
H         1.58363196429548    1.35207858212921    4.63796964307262
H         0.45243356538866    0.14122004023633    3.97083273941316
H         4.37451286771059    0.06593718340875    0.47299117632112
H         2.90034350520498   -0.49589117998209    1.31006678034496
H         4.20603479533700    0.28012673535862    2.24010181145725
H        -1.07959606024997    2.18857113223620    1.63806643972587
H        -1.08650444624424    0.51958459177078    1.00874457360481
H        -1.86813936674088    1.83297858994741    0.07996340359952
H         2.00810161698365    2.14075527743653   -3.33278209516697
H         0.33110100858546    2.21294195687684   -2.72228762138636
H         1.41459197102008    0.90839615037524   -2.18680826870113
H         0.36833588575694    5.35390029207236   -2.11914293628970
H         0.03348490525748    5.91274522016922   -0.45398068548880
H        -1.31387005754732    5.51842589353714   -1.55288866397628
H         4.21232610089269    3.93922877613625   -0.91138995244339
H         5.05176666535148    3.68184088178348    1.61856572293881
H         3.87393574562012    5.59102070833960    3.07235555793494
H         2.38540506927064    7.09822585052775    1.43294106457558
H         2.59752917616055    6.06660864925884   -1.03615818985887

