48
CSD_code = BELXEV | q = 0 | S = 0 | Stoichiometry = C21H22Cl2NPPt | MND = 4
Pt       -1.04908973913243   -4.59166230791116    3.73137150723184
Cl       -2.66986625912739   -5.16533957512508    5.30632698383207
Cl       -2.13747319466462   -2.80446829622198    2.71057195562696
P        -0.19164409614775   -6.38924408234633    4.80637991121218
N         1.01271690958605   -2.95321493266543    2.48210507479811
C         0.12592962897418   -3.88950240626184    2.32498771732003
C         1.35176592506626   -2.44589760020513    3.79161642607119
C         1.59886094192858   -2.20561144346169    1.39210846951608
C        -0.10958820267859   -6.31134193909632    6.61476312317806
C         0.84907372898065   -5.46780349490411    7.17049126306226
C         0.92345709796355   -5.30941232463981    8.54133418074820
C         0.03738715717674   -5.98788684300654    9.36304506416799
C        -0.92585349156377   -6.81682981139970    8.81138522096716
C        -1.00704629328587   -6.97731949582399    7.43966190974364
C        -1.10678432075718   -7.88614531806333    4.35233475276563
C        -0.84164951402340   -9.11519670636929    4.94725312697987
C        -1.53573679870607  -10.23846229329429    4.53645489337286
C        -2.47982252919960  -10.14306858859033    3.52593670857009
C        -2.72838417795499   -8.92345119026106    2.91707752536200
C        -2.04051142751783   -7.79631224308415    3.32677099094848
C         1.49742060669643   -6.95193250008440    4.36378617571215
C         2.35929238601434   -7.58052053013518    5.25424100572426
C         3.59410627455517   -8.03164525623911    4.82122189200895
C         3.97358060254669   -7.86863518152731    3.49951778974295
C         3.11365604455464   -7.25189801561918    2.60445977015878
C         1.88313001243146   -6.79589995069768    3.03714505660649
H        -0.05392312045613   -4.13815773346048    1.27338445560744
H         1.02068612782635   -1.41010600776726    3.88595450629569
H         2.43189386940149   -2.49114770075366    3.94305733039876
H         0.84287250051386   -3.04821590607784    4.55127087146674
H         1.19538523479581   -1.19069079662663    1.37660393206485
H         1.37444843444373   -2.68351404922867    0.44135698719449
H         2.68126044406676   -2.14986373088529    1.52015016970187
H         1.53335929020173   -4.94107261848334    6.51596867435726
H         1.66662993701478   -4.65285782028716    8.97004867664365
H         0.09158948161755   -5.86167453413181   10.43432335540890
H        -1.62497499338557   -7.33301477405685    9.45273112764180
H        -1.77650158146064   -7.59826114421961    7.00489665316784
H        -0.09747544976264   -9.18753342412832    5.72875009122568
H        -1.34030602566753  -11.19230896053285    5.00474082258914
H        -3.02153193048460  -11.02324924135233    3.21212363096408
H        -3.46088721302349   -8.85214109977626    2.12691957868489
H        -2.23145194706924   -6.82691806231888    2.87078768679647
H         2.07116888860825   -7.71077077578801    6.28791364259927
H         4.26242944453565   -8.51480190193863    5.51905822956072
H         4.93826904907397   -8.22231456520159    3.16705181378758
H         3.40550051574876   -7.12797156930125    1.57179683635470
H         1.19823177175243   -6.30711125667246    2.35396243206195

