55
CSD_code = BELXIZ | q = 0 | S = 0 | Stoichiometry = C24H26FeN4 | MND = 6
Fe        2.47339593322487    7.43617803415027    2.78701578869810
N         1.17581259658508    8.77535488457364    2.51943992092985
C         0.10560216169532    8.76350671448007    1.71538145640033
C        -0.79917019778791    9.79504402215207    1.60821698473599
C        -0.61189990885723   10.94567474629368    2.37170182985993
C         0.49543859997774   10.99518203032230    3.18820906119393
C         1.37197890735203    9.90837234279151    3.24477253115955
C         2.57915324672986    9.89682904717674    4.03142891450193
C         2.99560555635037   10.92776124754374    4.87783167472923
C         4.19880589834317   10.82263504041059    5.53994731485733
C         4.96893758084376    9.67950926526841    5.32617449829820
C         4.48874549601489    8.70151037641022    4.48583307387282
N         3.31694576393621    8.77760991803095    3.84880022482033
N         3.38152060053249    7.74562666170097    1.13767803341811
C         3.09897367541209    8.65974429574768    0.20532314122606
C         3.74092510413624    8.73943737843163   -1.00911066735223
C         4.74579724065294    7.81760560479918   -1.30237783003453
C         5.06395913751158    6.87836201501666   -0.34650981290127
C         4.37414677519930    6.86656019288388    0.86873826328771
C         4.64660406064403    5.97361861533035    1.96627722637492
C         5.68591396632953    5.03952217573807    1.96416145971128
C         5.91178434792900    4.25728053910162    3.07429616554406
C         5.08620304087486    4.45289086808547    4.17973595116816
C         4.08138516339393    5.39079177159195    4.10969710153316
N         3.82400811747020    6.14610239912676    3.03488969401193
C         1.33611941185333    6.05533576071654    1.83472073645669
C         1.75479245956988    4.58851318831128    1.82575649435513
C         1.49418800553455    6.82314743043971    4.45200195184261
C         0.11840231173583    7.39118125347582    4.78599195809590
H        -0.03075793797668    7.87315918325019    1.12722704676353
H        -1.64330712399335    9.70364227540516    0.94284865010806
H        -1.30609815413698   11.77000414525407    2.32076710511302
H         0.68648938853684   11.87078973828378    3.78772374446528
H         2.37578181426291   11.79861157808663    5.01904676194541
H         4.53796926005139   11.60297599043671    6.20358215166943
H         5.92386025845434    9.55591073971806    5.81235008138797
H         5.06576135315801    7.80606366808840    4.31152042333712
H         2.31422989139823    9.35945665855548    0.44974923828089
H         3.46361892580821    9.50168879137499   -1.72015305230214
H         5.26047821232792    7.84203174623265   -2.25049791230016
H         5.83693719384652    6.15191962185336   -0.53956031696704
H         6.30793434302394    4.93021940483489    1.09024604452833
H         6.70256460103054    3.52349605150512    3.08954483335551
H         5.22259651378748    3.87657749735268    5.08133535385377
H         3.44135512010335    5.54913043950392    4.95974158080924
H         0.32541995576518    6.08568690525320    2.24157805473804
H         1.26296501899984    6.35185133231499    0.78017819668522
H         2.69518514074289    4.43956829125262    1.29583491518663
H         1.86780924425990    4.19997041943960    2.83586595649267
H         0.99913484457192    3.97924936875799    1.32111463875568
H         1.38156358155167    5.73953328462572    4.42000859854491
H         2.12994605382251    7.05073491684074    5.31770894078840
H        -0.58916006546185    7.22445670027065    3.97624837628226
H        -0.28594967026891    6.90967197875192    5.68125956884910
H         0.16069718314637    8.46131145265571    4.98710787883480

