45
CSD_code = BELYUP | q = 0 | S = 0 | Stoichiometry = C22H12IN6O3Re | MND = 6
Re        2.17402957480441    2.21858236343904    7.03743498366183
C         0.78149387653765    1.70278076066700    8.30568887399358
O        -0.05917946943908    1.46085704457394    9.04269949658607
C         1.82021379193645    0.71377269939877    5.84553281529995
O         1.62061401440783   -0.13747710447753    5.10652120481474
C         3.52649144246268    1.25614103966164    8.06708888340153
O         4.36586728444323    0.75116390125276    8.65678686746701
N         3.58257736061777    3.16722300801134    5.68118626085526
C         3.08076622255917    4.29416157427831    5.13018667571822
C         3.89127998146773    5.26120663728417    4.50060748217832
C         5.27340837691876    5.02006629382206    4.45687715109634
H         5.92834146140604    5.74895234417336    4.00349705964084
C         5.76326432220571    3.85773167566219    5.00231023948713
H         6.81827478279598    3.63612005172782    4.98835758515938
C         4.88290588205236    2.95813336522347    5.60500830575781
H         5.25325947738937    2.04562994197259    6.05285631490640
C         3.28392724311882    6.43332896214420    3.96609277584403
H         3.92437501409731    7.16608887611960    3.49854635496325
N         0.94052463452831    3.58697026330509    5.90142671618410
C         1.66757640744903    4.51133898125397    5.23587087726972
C         1.09841162401200    5.67578578096190    4.68161171796847
C        -0.28832133043846    5.84665513822603    4.81533630348865
H        -0.75817864712276    6.73212455615958    4.41441295488458
C        -1.01691896957290    4.88117198099888    5.46709842795635
H        -2.08350467503873    4.97576442296304    5.59180604125204
C        -0.36180633277232    3.77137669686917    6.00239582962865
H        -0.91811881279344    3.01392991437955    6.53834278900747
C         1.94602182178897    6.62811815502907    4.04658435506871
H         1.49117825864424    7.52009325516207    3.64275887533857
N         3.84999605441783    4.42550327901222    8.16211798340225
N         2.60797835114591    4.00076439835448    8.03638894912564
N         1.75791057058348    4.98227609383026    8.20001818479196
N         2.41819698277014    6.07637680472806    8.44031032054631
C         3.71790696308153    5.73076932388206    8.41732968269374
C         4.82339078505650    6.64783325685980    8.57636273191547
C         6.13300510083541    6.19182978751884    8.44410898107631
H         6.30770952795101    5.14416584079402    8.24936780353241
C         7.19178943018964    7.06990678415662    8.56704196276063
H         8.20656384831992    6.71536941154498    8.46666074752863
C         6.93567345518788    8.40555055296803    8.82225381909837
I         8.55941330052039    9.75788806304456    8.99529561223355
C         5.64197597206603    8.87632352625038    8.96092566518635
H         5.45706382400303    9.92018709483003    9.16446841813038
C         4.58575235148124    7.99499036212314    8.83680902114230
H         3.56709886391019    8.33597283980156    8.94071589795286

