95
CSD_code = BEMFAB | q = 0 | S = 0 | Stoichiometry = C25H60N5Si4Y | MND = 4
Y         1.67006169840269   -1.27397785961202   10.66686686071640
Si       -0.11238217142385   -0.20956380286576   13.37648584282226
Si        0.49610367994779    2.03769538078188   11.55523158848734
Si        4.37587455854139   -2.25274332823373   12.57362179838388
Si        4.32743853792796   -3.46712254086472    9.84473474614756
N         3.06933604830115    0.53066469157648    7.87781027766782
C         2.11040838510704   -0.24371331805604    8.44672871404335
N         1.20799448087403   -0.45373702842297    7.46039916460438
C         2.76632910743787    0.78715097795243    6.56586021035325
H         3.38193591611330    1.37563337080670    5.91942729059456
N         0.01343859427683   -2.29447806175392    9.77774570927793
C         1.59516436109113    0.16818851505673    6.30467904830504
H         1.02128292923911    0.12494244546621    5.40174471526422
N         0.63974473854991    0.36672622374493   11.93610055822114
C         4.29769962965343    1.05439136320736    8.48604440538510
N         3.68996975118084   -2.35579409825690   10.99224523586718
C         4.36034905067858    0.73823924364288    9.97768465484678
H         3.50503428072594    1.17134325677492   10.49878223064018
H         5.26673953450882    1.17748612966939   10.38909679841506
H         4.39655124879433   -0.33931324747533   10.15367799751436
C         4.32905437431431    2.57804738672672    8.30237147045978
H         4.36064926711688    2.86333850345116    7.25421906568113
H         5.21378854352792    2.98322489070612    8.78549931394719
H         3.45230567844078    3.03074925329090    8.75961932946952
C         5.48777719980315    0.39892669876115    7.77585536801467
H         5.50280635868315    0.64139198628523    6.71577247775102
H         5.43318280985531   -0.68089795511980    7.88754268058402
H         6.41825097377310    0.74563550311781    8.21638816020572
C         0.01898522977077   -1.28387993724719    7.47939931193280
H         0.29317972860589   -2.28492311047301    7.12859230248365
H        -0.68488619756258   -0.84715951006704    6.76309354644033
C        -0.68618188428746   -1.42253949743705    8.85759608514569
H        -0.79570095803472   -0.41039783282907    9.28173947444204
H        -1.69819918801739   -1.78909093786588    8.63798469783942
C        -0.59119559531608   -3.61230350350816    9.95104465246086
C        -0.77385186576285   -4.37566506357943    8.61860192604100
H         0.19045528390433   -4.52193284108286    8.13672098232802
H        -1.43287453798037   -3.84497995493294    7.93625933411346
H        -1.21208240992394   -5.35227750695030    8.81168750364238
C        -1.96041772186430   -3.51560137073676   10.66253259135394
H        -1.85578547241735   -2.90317836648303   11.55539604514191
H        -2.30929669781037   -4.50551126476740   10.94743276463095
H        -2.71367978852735   -3.06417320145709   10.02118219634583
C         0.33413603173471   -4.46222656555976   10.83891843719922
H         0.29556573001783   -4.11352942454570   11.86854261221869
H         1.36211915481489   -4.40649911228916   10.47826483793827
H         0.01463803874605   -5.50318369865169   10.82263905688794
C         0.50498541335615    2.35614257788481    9.66152867838540
H         1.40792955383972    2.00044097020788    9.18138972238950
H         0.42736849881834    3.42124087390380    9.46605342426440
H        -0.34005421539471    1.87815132183511    9.17625541316489
C         1.93640388759871    3.06784507185643   12.30864654681900
H         2.89330079555753    2.55984481334729   12.23862199707417
H         1.74942435550427    3.24807717751996   13.36174122490779
H         2.03769564465617    4.03476861968320   11.82492158762176
C        -1.10875859076678    2.91208197322653   12.11927424534070
H        -1.98640833925602    2.43870648215107   11.69214530273577
H        -1.11769519719194    3.95525938080215   11.81808561890202
H        -1.21398809137385    2.88203808179157   13.19730849870939
C        -2.02356306040941   -0.33705779215562   13.25189216384217
H        -2.48699448877346    0.62266692297115   13.44917474290158
H        -2.43082653105620   -1.04844279759889   13.96408852194517
H        -2.32801502139812   -0.64734635100244   12.25713871192769
C         0.56091100835311   -1.97620009896034   13.71819558486632
H        -0.24474558321869   -2.68473529857438   13.88634058787378
H         1.19610228039364   -1.99216989572335   14.59750158993645
H         1.16087915226248   -2.32874682129965   12.87019366005812
C         0.28186482588302    0.80242056420953   14.95318194126948
H        -0.12599366833114    0.33050440239275   15.84156610974412
H        -0.13777817074703    1.79961747283666   14.88990289655098
H         1.35220327504844    0.90891284090012   15.09538110257364
C         3.27670519957532   -3.35112207960371    8.24255843438098
H         3.39766768528426   -4.24678488893764    7.64103746420367
H         3.57444925665991   -2.50749610878894    7.62625295453557
H         2.21994663826929   -3.24170411586317    8.47612234522263
C         6.13937232230947   -3.10873760752321    9.30677465555033
H         6.28201320858216   -3.25823495022910    8.24047888781149
H         6.82606700633493   -3.77369773161748    9.81849594860720
H         6.44072542182341   -2.09513196285246    9.54589904278653
C         4.33938507701080   -5.30134475554375   10.40130477682686
H         4.66519358653915   -5.96063598680012    9.60232064461950
H         3.36331045051004   -5.64040721694363   10.73245873793144
H         5.02444394098291   -5.43044681585178   11.23245090869561
C         6.28845062215187   -2.27715145983115   12.64126265055183
H         6.72831161666887   -1.48814808170815   12.04097427197202
H         6.67419098508048   -3.22072063648664   12.27387947090060
H         6.64200299300767   -2.15075110001920   13.65957659855585
C         3.85817207664232   -0.56290661113987   13.32374961481494
H         2.91847893791565   -0.19034498804863   12.91153297856556
H         4.61991054229609    0.19092078590106   13.14901415397582
H         3.73188529429352   -0.64354710134524   14.39838532065265
C         3.82756333957281   -3.68571046584278   13.73072288951550
H         2.82182406426565   -4.02694781873199   13.50686238775616
H         3.85368804778474   -3.39224554183366   14.77565902556304
H         4.48907750778706   -4.53840513155504   13.61693189040911

