51
CSD_code = BEMGEG | q = 1 | S = 0 | Stoichiometry = C16H26CoN4O4(1+) | MND = 6
Co        4.83380455558342    2.14423973727475    8.95230481672398
O         4.95356996869448    2.52595401998564    7.16672129889799
O         6.61180845342838    2.39007077913881    9.28957299503603
O         8.09220327046899    3.86370157884023    9.98928589996661
O         4.24572568669133    2.10693971302190    5.12486314326773
N         2.62492576057675    1.86114050700455    8.68487984011407
N         4.60127111679707    4.15432174835043    9.41968858277736
N         4.50410118639643    1.78764302728385   10.87853607391830
N         4.37625136072030   -0.25195551386313    7.81733658654835
C         4.62541101844880    1.74473774522446    6.21105959903612
C         4.73533711178886    0.20067652675378    6.49237871753869
H         5.78903180730855   -0.03910645599369    6.32617934884730
H         4.13568429622140   -0.32099185264817    5.74720771848090
C         7.01297428818999    3.59497368854112    9.52882834913499
C         5.40674455475658    0.67131977995885   11.22983407942775
H         6.42952666863177    1.04709530193867   11.23391089803914
H         5.17149351513673    0.26855205456646   12.21969303060815
C         5.26617087232418   -0.37779434368974   10.12033719338732
H         4.57270259008326   -1.19046228569749   10.35713067573056
H         6.24107031654475   -0.85163016797716    9.95427834171841
C         2.16793334257436    0.69023399955534    7.88900601764286
H         2.20955624246779    0.97394048965542    6.83561246229049
H         1.12208696684516    0.46672672896937    8.12890379148457
C         2.04610524383438    3.04059404913245    7.97014820150724
H         0.96634137252104    2.87179530581376    7.86432353702785
H         2.48547925223974    3.06356005117996    6.97158214557806
C         3.66674123237501    4.94176912651903    8.59941812753878
H         3.66739765907238    5.98418384091444    8.94332671601003
H         4.04393354226555    4.91567703600498    7.57514701425853
C         2.09791959298403    1.81154826245513   10.06728670209384
H         1.75253962734153    2.80460394296085   10.34271286117885
H         1.22319073744292    1.15283386709446   10.12171374774067
C         4.82902450734347    3.02469638189946   11.61012136119132
H         4.42652833986529    2.99970812340497   12.62947451854798
H         5.91500733812494    3.10516587681118   11.68334280373251
C         3.11386894973571    1.33234400286708   11.10948825570465
H         3.10990807819761    0.24372041821102   11.11725644993607
H         2.77576346677212    1.66044416023954   12.09866207839435
C         2.98762730069848   -0.61031329546501    8.02972243930946
H         2.86541404540186   -1.05985427223132    9.01463025505199
H         2.65166460773615   -1.32298122535684    7.27413367707271
C         2.22968470250096    4.43261570261829    8.57308180878397
H         1.68052979485507    5.10527239197798    7.91022665536476
H         1.75092985684758    4.53073865476015    9.54851586009562
C         4.28031297783847    4.23985766829288   10.85823355923259
H         4.70233264638881    5.15306645290731   11.29524723900247
H         3.19941790411547    4.28716043796670   10.98327915615465
C         5.96457075765694    4.66562839974642    9.17879086522593
H         6.16044012682589    5.59199064928859    9.72744864749550
H         6.09700052405531    4.85425983425453    8.11070726531959
C         4.96714086428403    0.33378734953792    8.85062859083253

