59
CSD_code = BEMHIM | q = 0 | S = 0 | Stoichiometry = C20H32N2NiS4 | MND = 4
Ni        5.59754847072168   -0.00006722641894    8.60702817488998
S         5.97351409812018    1.19994808562958   10.43034008530421
S         7.66994684679223    0.67344054855852    8.21250277435435
N         8.31979965087044    2.46036471558934   10.09392016937676
C         7.44310954847907    1.56717228056646    9.64661423051885
C         9.52741412332107    2.72405023908488    9.33401773651490
H         9.82217741010466    3.76333241945458    9.48328266268826
H         9.28973424403684    2.57541559751312    8.27310998396493
C        10.64397739917315    1.79259528703414    9.70616480889544
H        10.36340475498185    0.75000900346832    9.75471798129838
C        11.88450650148220    2.17651790644178    9.93594520001964
H        12.17977321314403    3.21214840225419    9.88092797333744
H        12.66227928934308    1.47297361485260   10.17593032125079
C         8.06643462545760    3.19910075202796   11.32126383948206
H         7.24502737397074    2.67724018070315   11.82528150702213
C         9.27328686461486    3.20584459802302   12.25752327176154
H        10.10791349698678    3.73824760284363   11.79988172074259
H         9.59327322995216    2.18074896211755   12.45218942002283
C         8.89183089649585    3.89975214136999   13.56305930934384
H         8.09026879428649    3.34131377009775   14.05061788056319
H         9.75111464224283    3.91011944556285   14.23584140751567
C         8.42400700160291    5.32670450316842   13.29188655026776
H         8.13974044031727    5.80752295274883   14.22935005377381
H         9.24564009956140    5.90125918067848   12.85766669503793
C         7.23926553709368    5.32853946334063   12.33040068386503
H         6.92805565030985    6.35377734856377   12.12262683604528
H         6.39662209552227    4.80881325247105   12.79049338617267
C         7.60711529124025    4.62949959208930   11.02500568676415
H         6.74437298113674    4.60074633597394   10.35704549713370
H         8.40526340462062    5.18456350597713   10.52723123633577
S         5.22151498107111   -1.19997818474317    6.78366453566816
S         3.52505895777395   -0.67342189866949    9.00147685942493
N         2.87516623776697   -2.46028797741282    7.12001641828797
C         3.75189362042674   -1.56715659071771    7.56738096560218
C         1.66759181465657   -2.72405917811523    7.87995418745952
H         1.37285052909925   -3.76333590694072    7.73061354231271
H         1.90532952421688   -2.57551388000571    8.94086230240643
C         0.55096328368421   -1.79261771272355    7.50796532208390
H         0.83145941815785   -0.75000264649581    7.45958732314218
C        -0.68953181553947   -2.17659592389260    7.27809984965796
H        -0.98470940070428   -3.21226334575621    7.33290260868435
H        -1.46737630228682   -1.47306322294965    7.03831323217451
C         3.12855936586739   -3.19903909723695    5.89268914693191
H         3.94997177627665   -2.67717844756668    5.38868027262357
C         1.92172917354838   -3.20579866391063    4.95639850366188
H         1.08707594843494   -3.73815164244956    5.41404849971092
H         1.60177721511607   -2.18070314310919    4.76167301969321
C         2.30318578545620   -3.89977560333080    3.65089800797727
H         3.10476154884074   -3.34137311988095    3.16332001529245
H         1.44390936395589   -3.91016273877316    2.97810676135310
C         2.77098845250021   -5.32672173776407    3.92213993623200
H         3.05523854071755   -5.80759302960460    2.98469852031053
H         1.94935039071316   -5.90124135473123    4.35639618519871
C         3.95573673557383   -5.32852282917580    4.88361741236679
H         4.26694904122414   -6.35375290162360    5.09142958055214
H         4.79837829328426   -4.80881329189122    4.42350230139624
C         3.58788801230062   -4.62943027862964    6.18898191459133
H         4.45062831864680   -4.60065655155087    6.85694495255255
H         2.78974321323788   -5.18448356213413    6.68677073838634

