98
CSD_code = BEMHUY | q = 1 | S = 0 | Stoichiometry = C46H46NNiP2S2(1+) | MND = 4
Ni        0.95578920182843   -2.96384955988383   -4.65865289460900
P         0.00138120829427   -2.28590541747038   -2.80366274083696
S        -0.63441309950767   -2.08317084409810   -5.96998068200223
P         2.51977034750536   -4.23678427531861   -3.77230819394880
S         1.89695085824654   -3.07055145594303   -6.69393078316518
N         0.16538610939037   -2.17929207978344   -8.53048962426172
C         0.43303866349110   -2.40543299315114   -7.25726827746628
C        -1.11473797840434   -1.60901773783452   -8.93182744965990
H        -1.58501238967843   -1.23428368120554   -8.01384669627034
C         1.72582312964408   -1.38749849324475   -0.68863375838150
H         1.06864938466748   -1.84011115684575    0.03831888439695
C         0.41275467208048   -8.28382539332102   -4.21934464957282
H        -0.09580741724413   -9.22708534384788   -4.34654939430944
C         3.13453292235753   -4.15667895071710   -2.06295813735584
C        -2.03266853004675   -2.67618699305806   -9.53309003563961
H        -2.13509957520854   -3.50845876723103   -8.83317348277569
H        -1.60188181920346   -3.06180876931489  -10.45903673330376
C        -1.70935559074082   -5.36549912338396   -0.75097682534059
H        -1.85112017943030   -6.42687229523777   -0.88922535951533
C        -3.39969427414826   -2.06393882232043   -9.82704703700566
H        -4.04782727324434   -2.81905338552822  -10.27349631494428
H        -3.85871132118657   -1.73911773047442   -8.89079702975771
C         2.21982548938233   -7.01268349031987   -3.27260794586274
H         3.10573196792160   -6.95435341359331   -2.65584721700353
C        -3.26270231481769   -0.87120049748791  -10.76837365156918
H        -4.24315808703041   -0.42784612346659  -10.94474862046078
H        -2.87203900339322   -1.20949126791021  -11.73036099736810
C        -3.43447864726284   -0.30822431322140   -3.62751613314761
H        -4.43288145720196   -0.58652005528331   -3.92932072138657
C         5.86255417061967   -3.19881418487838   -5.81899785747960
H         6.35731053488905   -2.27445736401673   -6.07704804217042
C        -0.85321259202325   -3.26236532005498   -1.53656715659745
C         2.31054823683516   -0.90752681636296   -2.97643056129038
H         2.06133789098746   -0.98512201375171   -4.04656464451336
C         4.79340396728908   -3.50635938866685   -0.45165169504455
H         5.75528396193807   -3.07064144167323   -0.22802955346824
C        -1.03781778114743   -4.62878358606629   -1.71101204211262
H        -0.66255224407135   -5.10553503750581   -2.60723233454492
C         2.33119768705015   -4.63232619857866   -1.02973027023308
H         1.37260094551699   -5.07619834996835   -1.25552105953532
C         4.05215995686954   -4.36650679631275   -4.74666234912914
C        -1.19170217068537   -0.92793560736051   -3.02378159531746
C         0.56948774657084   -5.93843523439571   -4.66308549974135
H         0.17483886690917   -5.01943511518712   -5.12815696037956
C        -0.95138042879515   -0.43533784174654   -9.89487236811693
H        -0.51044341395585   -0.77237660333956  -10.83308348782659
H        -0.28642228555315    0.31205276078671   -9.45794942789104
C        -2.20202980962712   -4.73802654250370    0.38117919113994
H        -2.72413668985078   -5.31170272719266    1.13142668869652
C        -0.08719808713612   -7.14333315436080   -4.82923233576023
H        -0.98579918998453   -7.19709391528807   -5.42527610563400
C         1.43628078640982   -1.46711855416612   -2.04164264219931
C        -2.48052745467477   -1.28452024016972   -3.41707452250131
H        -2.72330795958474   -2.33059677207321   -3.55410031980466
C        -1.82428549847173    1.38403038639583   -3.07033629009530
H        -1.56970827073939    2.42458402647424   -2.93585326034584
C        -0.86160419383560    0.41181236620444   -2.85965873048444
H         0.13847073825940    0.69516774016015   -2.56346647175554
C         4.57856820140770   -5.57838259269385   -5.17449143456422
H         4.07574827392093   -6.50528660990804   -4.94149169961980
C         1.15421243741626   -2.51153098179956   -9.54132623945399
H         0.63927669188989   -2.76931335051650  -10.46668226492699
H         1.70532188191511   -3.39481753799584   -9.19222690013970
C         3.99381274644439   -3.98551709824030    0.57243804256906
H         4.33039009197014   -3.92279940436405    1.59582491982541
C        -1.37842118666010   -2.62769066590886   -0.41392317683662
H        -1.27976853016291   -1.55661017683274   -0.30475263228060
C         2.87810285766256   -0.73712916823126   -0.27690564883403
H         3.10707740531843   -0.67554951967241    0.77595569199293
C         5.74938512357056   -5.59429679847087   -5.91328953216428
H         6.15714561806434   -6.53733711732785   -6.24456643579077
C         4.36771213188228   -3.58651086943727   -1.76529322077310
H         4.99984551375808   -3.21656088676280   -2.55888932916764
C        -2.04222080568704   -3.37018507295812    0.54477946410435
H        -2.44435090428422   -2.88037060988836    1.41866926658666
C        -3.10654670664615    1.02772608297098   -3.45355061742149
H        -3.85103362931547    1.79131682843332   -3.61935970168467
C         4.69313704127296   -3.17537820367031   -5.08377855543936
H         4.25775442069318   -2.23364904799393   -4.77343478354531
C         3.73452178923932   -0.16919757673059   -1.20440596899313
H         4.62780082703058    0.33728492505539   -0.87288007109355
C         1.73007432859727   -5.86812742582916   -3.89359440681819
C         2.76270669616122   -4.55058783193373    0.28027713736599
H         2.13646741911900   -4.93003651725015    1.07374548437909
C        -2.32223393208692    0.17551305352220  -10.17825135727116
H        -2.20985707512067    1.00887359371072  -10.87287084147140
H        -2.74656946801626    0.56733401294684   -9.25117327555638
C         1.55782242027002   -8.21648883133847   -3.44058159197184
H         1.93668262284920   -9.10660071821972   -2.96169185096032
C         6.39323499825354   -4.41063933815646   -6.23243934422370
H         7.30372541539501   -4.43089253398286   -6.81141754487738
C         2.12997738181983   -1.39220812214255   -9.76891979927785
H         2.55876593643914   -0.97257098549163   -8.86919449196225
C         3.45270866696189   -0.25351716618862   -2.56048424878529
H         4.12437951750045    0.19009098633810   -3.28064424835809
C         2.47971906004342   -0.94878436229685  -10.96020417803886
H         2.06904235988519   -1.36294995636014  -11.86639632921060
H         3.20158994466099   -0.16097844834994  -11.08211407917334

