38
CSD_code = BEMLEL | q = 0 | S = 0 | Stoichiometry = C12H17Cl2N4NbO2 | MND = 6
Nb        4.25531425111080    6.36111056533786    1.62561422508161
Cl        5.50838282085700    5.46534977748337   -0.06421336033892
Cl        2.64130526166073    4.73310326108734    1.54760801294871
O         4.83059801244136    8.13939504829650    1.41586243826934
N         2.69832481741492    7.40317685688674   -0.04628962096116
N         2.31896320355410    8.68003673669255    0.14318108045204
N         2.65621133071960    7.55525070017172    2.83842367638985
N         2.29586728957612    8.80782531698398    2.50560399634635
O         5.03078795923271    5.77139679538324    3.01252659333394
C         1.54631645550308    9.11650110782804   -0.88442887809225
C         1.43682262872915    8.05983246854484   -1.75911518699329
H         0.89838304076206    8.04383350884793   -2.68423417103433
C         2.17536413559171    7.00438809505013   -1.19355059772379
C         2.38380735785262    5.63706403502929   -1.72624344122983
H         3.44523881959839    5.38498461829843   -1.70345021945150
H         2.01092556271295    5.56789385516371   -2.74450779894519
H         1.86337207773882    4.91264471100719   -1.09841109034935
C         0.97417904855435   10.48529716953307   -0.95484796890033
H         0.30206156596065   10.67287300400771   -0.11704853093909
H         0.40722461058985   10.58643616856163   -1.87579247764781
H         1.75769538978440   11.24310254608205   -0.94830322988492
C         1.52915666571426    9.35913158014972    3.47772801392651
C         1.40290744645870    8.40443288508334    4.46358990717284
H         0.86095469134066    8.49966714560428    5.38180469288599
C         2.12968595653503    7.28599093715167    4.02377953554547
C         2.35311363987542    5.98434372633746    4.69095940228991
H         3.40641734355105    5.70728547414184    4.57960339897367
H         1.76162347787826    5.20933709955929    4.20113617337327
H         2.08325699439235    6.03854272536609    5.74158889942792
C         0.97759093638511   10.73618654192375    3.40507845808942
H         1.77510851356293   11.47684166714337    3.34786223145843
H         0.39125110929619   10.93245831162455    4.29794896257261
H         0.33007115491662   10.85516913880734    2.53639745064205
C         2.78959411245252    9.41103135003787    1.29065104871167
H         2.41895869941320   10.43839824793718    1.23269414909355
C         4.35659850347267    9.40006133342216    1.31563180889995
H         4.70934198952239    9.88334671731844    0.38511326804417
H         4.68172312528671   10.01757877211496    2.17644914856272

