45
CSD_code = BEMLUA | q = 0 | S = 0 | Stoichiometry = C17H22OP2PdS2 | MND = 4
Pd       -0.77001539106273    0.92083460086691    2.56390591596386
S        -1.16729991689223   -0.89203287687134    1.20188586404875
O        -0.77028017539109   -3.11838556028600    2.56376760188677
C        -0.76994123636577   -1.92244162835000    2.56373182990488
P         0.04803439173739    2.46144662491382    4.06861492515256
C         0.86131628213793    1.83253324213930    5.58140597778560
C        -0.78912366071441    3.96789162616613    4.69416583971094
C         1.47647629266595    3.05189470710803    3.09976060852694
C         2.00757414466808    4.33334559821028    3.16518762489897
C         3.07768763713048    4.68217897210068    2.35798930278263
C         3.62609393984167    3.75608494470498    1.48745899082923
C         3.10553651515289    2.47225904705902    1.42048493690476
C         2.03201491775854    2.12113795528314    2.21743113398376
H         1.58604430973445    5.06485448604339    3.83908170084865
H         3.48352855005323    5.68202832648098    2.40930097905741
H         4.45886337272323    4.03435934047623    0.85906421338172
H         3.53451638234471    1.74977853258185    0.74222993331954
H         1.61581589913669    1.09995008772760    2.16404927142487
H         0.09350299896456    1.49764611054167    6.27850446854560
H         1.47765947178880    0.97452875140392    5.31197878739842
H        -0.11820472136288    4.54579123702563    5.32777191642825
H        -1.14450069870452    4.57481687633469    3.86323902805024
H        -1.65076592391167    3.65084572807025    5.28187250528666
H         1.47362993818724    2.61099457478593    6.03705216870130
S        -0.37257535305428   -0.89216819203605    3.92565651979529
P        -1.58870980782954    2.46125955615904    1.05942211673054
C        -2.40220682398845    1.83221384299831   -0.45319700804802
C        -0.75142136982643    3.96752192000241    0.43363395611674
C        -3.01700558031533    3.05182575133863    2.02840245298508
H        -1.63449399697757    1.49728535679197   -1.15038643396391
H        -3.01847184608662    0.97420799146201   -0.18359244130879
H        -3.01463254839429    2.61060377360920   -0.90881874206197
H        -1.42225626294389    4.54547663986424   -0.20001301034559
H        -0.39588759010896    4.57446883254229    1.26447931674707
H         0.11014524229050    3.65024503611633   -0.15406463713464
C        -3.54793125612861    4.33335355715326    1.96314118290160
C        -3.57256100891205    2.12105879439668    2.91071545518051
C        -4.61789470250783    4.68226338569587    2.77050914268208
H        -3.12636310298168    5.06483755261028    1.28923862545964
C        -4.64592514855632    2.47225650786860    3.70782988971255
H        -3.15647673784980    1.09981850839083    2.96395993174453
C        -5.16630428734473    3.75616637701654    3.64103600485240
H        -5.02362611496592    5.68216646783623    2.71934627502725
H        -5.07491933942744    1.74979016562008    4.38609308816418
H        -5.99894568371582    4.03450687004788    4.26957278994020

