75
CSD_code = BEMMUC | q = 0 | S = 0 | Stoichiometry = C34H38Cl2Zr | MND = 12
Zr        1.29916831346808    9.14467616018913   23.30915743516258
Cl        1.49712118634709   11.41888734756874   22.80652399327994
Cl        2.34936710213430    8.70822607622838   21.26773258449608
C        -1.09429625080590    9.68459334894519   23.07923320640338
C        -0.71679933710097    8.96377451390330   21.91581838833975
H        -0.73983130912938    9.33775643103496   20.89883179256822
C        -0.42485863100707    7.62158201759583   22.29926894889270
C        -0.09864587904587    6.46761669790600   21.56028033428478
H         0.03304736742077    6.53073757560921   20.48878529123285
C         0.00036760206917    5.26575427745016   22.21734991263004
H         0.21246726658339    4.36475066882593   21.66115151735102
C        -0.20787563937288    5.16687286649860   23.60510406838872
H        -0.15193549560441    4.19501310693112   24.07336659687617
C        -0.50032040882753    6.27230470388873   24.36446248757838
H        -0.69133712575999    6.17912535864949   25.42546290435795
C        -0.60056217824237    7.52851121677477   23.73396220010554
C        -0.95292389552302    8.82659843026397   24.21044889499888
H        -1.31854580186590    9.03828880437377   25.20684633263816
C        -1.58913955770227   11.06745616231341   23.11355569542284
C        -2.23089410462416   11.58229911936095   22.06623607721948
H        -2.39926293977808   11.01230704786305   21.16886296021795
H        -2.61632931339461   12.58518254514752   22.06572072527056
C        -1.39169739906995   11.82131702502953   24.41300512126613
H        -0.54294421086974   11.36689576872360   24.95028135098235
C        -2.64694276590620   11.71763807526949   25.29080173281347
H        -3.47676753634104   12.20991175646577   24.77917899724181
H        -2.92707839612833   10.67226556062838   25.43678092171389
C        -2.40480093860771   12.38656034271539   26.64024526288610
H        -3.30407614392336   12.31352488918321   27.25615293562069
H        -1.59810508734458   11.86469684416437   27.15951181573238
C        -2.02130575782005   13.85125787193211   26.45258145936879
H        -2.86006860914783   14.38790391132081   26.00297972160569
H        -1.81580859775991   14.30848712838873   27.42301554919487
C        -0.79977557239923   13.97522530196456   25.54627709417493
H         0.06191300984959   13.50535003748558   26.02316861275763
H        -0.56147039611217   15.02911629182714   25.38942561155340
C        -1.05831940422072   13.30103361913416   24.20306107643226
H        -0.17846531697492   13.38376858616146   23.56517939665387
H        -1.89024712728212   13.80589147531892   23.71054842630944
C         3.38464700031329    8.15116661935819   24.16717421912084
C         2.30726176525907    7.63059171665192   24.94447274991737
H         2.10334817194965    6.58046022278097   25.10878551857922
C         1.79462793284832    8.69224386551622   25.74846164866807
C         0.86557904733381    8.72810431196054   26.80733623671593
H         0.37604955403915    7.81963615527677   27.13281345329482
C         0.63138017762037    9.91900058830091   27.44849113218390
H        -0.06087610855692    9.95409262532537   28.27702940775199
C         1.29255715807739   11.09993765683195   27.06471202711332
H         1.08585766120853   12.00858835775950   27.61044037926088
C         2.21357419251683   11.10851999860157   26.04604960525970
H         2.73998220116847   12.01395280433202   25.77667093922943
C         2.50304053765510    9.90097360947281   25.38105929639205
C         3.46813440298993    9.55057892652462   24.39140902693787
H         4.20126234031411   10.22258437542582   23.96066957911124
C         4.28054795887044    7.36057802662013   23.31241502125082
C         5.53580072284165    7.75313010812965   23.10264664917079
H         5.92811273960541    8.65463843464936   23.54071153936400
H         6.21896236009559    7.19029998122978   22.49371686587028
C         3.71767362988228    6.06568203511194   22.76257166112674
H         2.61881560508574    6.15077405229672   22.73554035505911
C         4.18651029745241    5.76602622913932   21.33600978713367
H         3.93263749485998    6.60697577920247   20.69083920290229
H         5.26870039279676    5.63188432693831   21.31815333444334
C         3.52494228911761    4.49109949853038   20.82370033917369
H         2.44378637986114    4.63539351330023   20.79362835964465
H         3.86292879535776    4.28423714898599   19.80638133371131
C         3.86193646251658    3.31052573180323   21.73009078605119
H         4.93830686573116    3.12628365384478   21.69740447260536
H         3.35923889038041    2.40873814681642   21.37357777313980
C         3.44588381902692    3.60225284588472   23.16853836393307
H         2.36038026500696    3.71216268590628   23.21626821887225
H         3.72835210981986    2.76751925945125   23.81409234563737
C         4.10173942449818    4.88612874460070   23.66705054767999
H         5.18788663842289    4.77288660466681   23.65666647355340
H         3.80351010381780    5.08189239572028   24.69916391610336

