57
CSD_code = BEMNAK | q = 0 | S = 0 | Stoichiometry = C18H32Br2N4Ni | MND = 4
Br        1.06268179874067    2.91860883757708    1.01048585767131
Ni       -0.00007356795079    4.69811055865794    0.00008503668339
C        -0.43702328303890    5.40433991501127    1.70457379286674
C        -1.50034088027426    5.84167225583577    3.60483051530839
H        -2.28229978445253    5.79224906737722    4.33324307546671
C        -0.33385869195323    6.52608200958871    3.61872975902914
H         0.07780603664851    7.17638805216852    4.36175407360933
C        -2.61524402532579    4.28693190478761    1.97315941187621
H        -2.30167441063199    3.92172624502011    0.98008603332868
C        -3.91195054912941    5.07469474443781    1.81884500231091
H        -3.76063147469590    5.91432111778122    1.14346098562067
H        -4.25151770714504    5.45350059639613    2.78021985887296
H        -4.68645023631612    4.43384658553334    1.40626469054502
C        -2.75505087944672    3.09442988271277    2.91367054322848
H        -1.80524488857733    2.56979414255125    2.99547896602139
H        -3.49980671802715    2.40405619910990    2.52700803940446
H        -3.06418146142956    3.41785317946722    3.90508414764910
C         1.59770882942506    6.75408968285375    2.02490206339349
H         1.76559059520364    6.33940478622878    1.01599634126479
C         2.69181598534469    6.24107357619189    2.95576068646969
H         2.67517132393320    5.15336160036068    2.98796053849942
H         2.55174707486650    6.62434739810161    3.96423095442177
H         3.66517804809088    6.56210032344969    2.59491563191429
C         1.56607894703492    8.27579829054521    1.93044636046764
H         0.76293310264734    8.59300705326432    1.26866027803840
H         2.50847153021800    8.64003883442999    1.53051399913809
H         1.41138251102045    8.72143746629202    2.91030367416524
N        -1.54665379725910    5.15755645641192    2.42015313622426
N         0.30631493827396    6.24600031638738    2.44181790418085
Br       -1.06238234665148    6.47724072924171   -1.01145736126039
C         0.43702651692154    3.99182983216453   -1.70440758068179
C         1.50033447117479    3.55451447268469   -3.60472234744032
H         2.28230448824512    3.60390131942203   -4.33313028997753
C         0.33378630563395    2.87023169453317   -3.61869402258544
H        -0.07792593395022    2.22003231537968   -4.36178961987822
C         2.61539766641418    5.10900406587352   -1.97295774755921
H         2.30179491885728    5.47430285035766   -0.97992891488113
C         3.91196535414218    4.32102648953896   -1.81851250798961
H         3.76046124105318    3.48147271479125   -1.14308309024935
H         4.25154465536141    3.94208997401833   -2.77983424128616
H         4.68654349195989    4.96176866606796   -1.40591774763627
C         2.75553018834047    6.30143393262108   -2.91351487291118
H         1.80581892729284    6.82621496175164   -2.99548505426882
H         3.50033317416095    6.99171292988137   -2.52676946838951
H         3.06476260224867    5.97793750025159   -3.90487578253998
C        -1.59785523859870    2.64232949027930   -2.02497887871441
H        -1.76561816182816    3.05673698047167   -1.01594227621545
C        -2.69187976173280    3.15582619214285   -2.95567389029969
H        -2.67504968763199    4.24354517256230   -2.98753133727705
H        -2.55188524347321    2.77284879747281   -3.96427082175909
H        -3.66529743628282    2.83486356623286   -2.59491908994654
C        -1.56653240210315    1.12058348286013   -1.93100598572056
H        -0.76337609698555    0.80299772022905   -1.26939949414917
H        -2.50895009415858    0.75642284565209   -1.53106228862638
H        -1.41204539077377    0.67516528573827   -2.91101357868730
N         1.54668824444549    4.23855026279365   -2.41999773047745
N        -0.30637281787548    3.15029467645555   -2.44176533626378

