46
CSD_code = BEMVOE | q = 0 | S = 0 | Stoichiometry = C23H15MnNO4PS | MND = 6
Mn        0.92582270820938    6.59055970954066    4.27608035856918
S        -0.38511100698398    8.70772258992050    3.82690234923733
P         2.02753823505026    7.74455721579671    2.65844927567070
O         2.26604446132948    8.49117739163416    6.06264023907662
O         2.70058315041640    4.24917182770115    4.47696244238928
O        -1.00925147715068    5.76057321010317    6.32211195476523
O        -0.86083675899245    5.87382649441055    2.05940074437490
N         0.78789595415087    9.90428177559631    1.61636840833599
C         0.76133417387693    9.03419118704257    2.52818624183066
C         1.77700443187878    7.69064333740672    5.41436296982174
C         2.00144467112274    5.15792684610653    4.40217059564311
C        -0.23785982535575    6.05115294402167    5.53243315267032
C        -0.15499302068856    6.07042002005942    2.93345013660821
C         2.30052822829465    7.11646780359966    0.98474020101246
C         2.54038556400075    8.00919091663299   -0.05626892129399
C         2.74359881169964    7.51800061924290   -1.33184274466952
C         2.72393482166366    6.15090098338533   -1.56565294222013
C         2.49908538291743    5.26555259891662   -0.52413423513141
C         2.28477205163635    5.74519312247644    0.75573381599218
C         3.58354331384318    8.60197680985525    3.01158840997299
C         3.79328829899823    9.94316991976578    2.71481831228500
C         5.01966807114340   10.51447511009561    3.00666365303572
C         6.02573940740622    9.75641735824860    3.58324850591963
C         5.81393954024941    8.41760020916563    3.87593977390341
C         4.59217484868867    7.83776579183730    3.59412220389270
C        -0.09426495640375   10.94838709376048    1.41349540372606
C        -0.69680762022747   11.65975932822831    2.45132564895614
C        -1.51895606032344   12.73129725385134    2.16228859364367
C        -1.75761789224102   13.09830173132181    0.84805076142310
C        -1.15598148030162   12.39663118549434   -0.18527609281592
C        -0.31791296293062   11.33586110230428    0.09088223879867
H         2.54371615571557    9.07090345602990    0.14244759711095
H         2.91986790767102    8.20245992269408   -2.14853090371943
H         2.88426966427582    5.77453864759271   -2.56502374278094
H         2.48658877771119    4.20174420985562   -0.70871239600090
H         2.10391360247768    5.06350868623315    1.58032807684795
H         3.00193776874114   10.53133180472729    2.27174333219754
H         5.18769149534997   11.55834021709775    2.78644120089310
H         6.97803755177182   10.21157124217689    3.81104861320752
H         6.59833903630064    7.82995986711138    4.32903486247798
H         4.40147429184896    6.79535914676304    3.82761689893979
H        -0.50154664337404   11.38143442867275    3.47632900178426
H        -1.98036486957462   13.28060698982608    2.96981633896572
H        -2.40838122365358   13.93170341860694    0.62913291222219
H        -1.33794847576614   12.68276406337674   -1.21094256253182
H         0.15487189552404   10.77652041171019   -0.70267068503760

