34
CSD_code = BEMVIY | q = 0 | S = 0 | Stoichiometry = C6H16CoN5O6 | MND = 6
Co        3.95044280549586    5.31625768572716    1.10055610680243
N         5.64892035124788    6.17557760410938    1.87088088856351
N         2.14580241381525    4.47687273177730    0.65228529068188
N         2.76327552414598    6.93774187985517    1.94862972395959
N         4.86424346573450    3.93645417962312    0.41748133567520
N         4.00930825343383    6.21007635755227   -0.40884130818989
O         3.94622481894012    4.44319931714055    2.84170826483933
O         4.65522948680317    4.55597145730634    4.93478216146305
O         6.01429362528836    3.78626336248068    0.74551984967629
O         4.25499220442677    3.22067754214231   -0.34685224258884
O         5.11137047188483    6.48165364033037   -0.85019823040209
O         2.95576177944210    6.61056035996302   -0.89022151927660
C         4.68749798924491    4.89445769231723    3.77158544964197
C         5.67405753499757    6.03991157117305    3.34096587634896
C         7.07335084704297    5.74803715201186    3.86277462657544
C         1.15961967940937    4.35197837164173    1.73148260183878
C         0.63101748959866    5.71399414115653    2.16691269745341
C         1.68850258498609    6.55274656478123    2.87501484895175
H         6.40398356890929    5.58324593521379    1.50687368311019
H         5.88673183098749    7.12730501140897    1.58968915893302
H         5.29324499229226    6.96045228483456    3.80012758270895
H         7.01442120531151    5.55164091921162    4.93008903419599
H         7.47393915359223    4.86073740630686    3.37591279053015
H         7.74621864473133    6.58705020106337    3.69044144163238
H         2.34257143441712    3.54261979303041    0.28496513668171
H         1.72847149721310    5.00881672666163   -0.11791530227072
H         1.64491872525113    3.85786149475420    2.57529200899820
H         0.31804330174945    3.73474304814035    1.39453779081473
H        -0.20295113112328    5.56192622560047    2.85223640807150
H         0.25671408957096    6.25789437547434    1.29470518675364
H         2.12854667128247    5.97319996880338    3.68863183790932
H         1.21170258619412    7.44565971643416    3.30032710502325
H         3.37285790486045    7.59530423901893    2.43007051679986
H         2.34157419882191    7.44251104295341    1.16624919809352

