53
CSD_code = BEMWEW | q = 0 | S = 0 | Stoichiometry = C20H20N2NiO10 | MND = 6
Ni        5.51243074022811    3.40660748642449   17.77290265657954
O         5.06746861008736    2.65251453148154   16.05848432494848
C         4.14199648726441    1.81485108223983   15.84645673954047
O         3.94626281439451    0.00774813432493   17.53808156249496
C         3.63919051056311    0.60069204179124   16.51020851863192
O         1.77035081799535   -0.34799487306954   15.11362257798485
C         2.64921539546193    0.43471879470246   15.39279813468281
C         3.21378990860067    1.64979864085203   14.78225928167536
N         3.07211670114786    2.40134544600260   13.67634907205160
H         3.68732418126542    3.20737852035192   13.64448503360277
C         2.36292845686822    3.17440377348632   11.53548845304817
H         3.06272649223132    3.99417049368307   11.62933410860884
C         1.57933385824546    3.06038213260835   10.40425494705078
H         1.66676101767165    3.79515083048084    9.61769827956604
C         0.68709116325471    2.00781271858041   10.27928675910324
H         0.07591089074362    1.91863782487355    9.39428815732476
C         0.58530728893686    1.07193179192169   11.29572670727214
H        -0.10768265860437    0.24941768708736   11.20440877786967
C         1.36287847408321    1.17421338374718   12.43420136884489
H         1.27078877851293    0.44087021825956   13.21835972566642
C         2.26083903709261    2.23168182625853   12.55962580062492
O         5.05873846411691    5.10306841776483   16.99017806939937
C         5.85998986228221    6.07099692376354   16.83430201890861
O         7.36667017466586    6.51788246433787   18.75616215181673
C         6.89686675218352    6.73132172544550   17.64449558304700
O         7.78708795041504    8.69390232276864   16.33899920851190
C         7.08527817709873    7.72889931962925   16.53653290548119
C         6.03473622912820    7.01786892473523   15.78889677030771
N         5.36592996530557    7.10183085502316   14.62586606134876
H         4.69098774758579    6.35733124299941   14.48609499162226
C         4.56429253638473    7.88277190280607   12.52152208361003
H         3.89021448672102    7.03702982695559   12.49541919121632
C         4.57450338673133    8.79175788907452   11.48242531793124
H         3.90963759781277    8.65143086716031   10.64323398610855
C         5.43266662112885    9.87889586970729   11.51797124171372
H         5.43931830262845   10.58957277859392   10.70594618852689
C         6.27993072057281   10.04755348525073   12.60106041816370
H         6.95018829744910   10.89283288092766   12.63465409483448
C         6.28109246414093    9.14480008437362   13.64795931993507
H         6.94716504193592    9.28625041848482   14.48311632297367
C         5.41783875617717    8.05222682398896   13.61258225467587
O         6.27706754507748    4.24882766256544   19.51550756143316
H         6.65957908959861    5.15106319887565   19.31579948739538
H         7.04515773693454    3.71651865248516   19.74838829105153
O         5.70930912613890    1.55946129141377   18.71123450088035
H         5.10707215697286    0.89156537878854   18.27271579387845
H         5.33108709100324    1.67182734166919   19.58982979289623
O         3.39552685475188    3.50323407738326   18.89783467321168
H         2.88425265975167    4.00674311643507   18.25694057929750
H         3.64305051253293    4.11580227263965   19.59929604615241
O         7.81860686841365    3.10167823456288   17.18485029288281
H         7.77330859228254    3.19330670487879   16.22835451794490
H         7.88071926600696    2.15841455823155   17.37210929562929

