48
CSD_code = BEMWIB | q = 0 | S = 0 | Stoichiometry = C22H12AgF3N8O2 | MND = 5
Ag        3.64362975817348   -2.44751155651193    8.34570511848694
N         2.52290758447969   -2.31845196978115   10.26035679312236
N         1.64328560228918    0.08652500114010   11.36891377366628
N         5.22543273471152   -2.72270134346842   10.11744117671924
N        -1.66304017920235   -0.11314036348212   10.46870236532702
N         4.78623482613072   -2.26480579163594    6.44083937598191
N         5.30377704742294    0.16983602446729    5.18128010389479
N         2.19465269398980   -3.10358319495198    6.56424023836720
N         8.56773925063095    0.57132665785755    6.17080669154772
O         4.48082732528936   -0.10044223375709    8.49059892378566
O         2.34592293341859   -0.35959880861308    7.94826163756555
C         1.26212786215997   -1.91627910960248   10.13483146628633
H         0.58780428184133   -2.56491960492992    9.59116965159149
C         0.81660628887392   -0.72004164978402   10.70120127507323
C         2.89438692860360   -0.30347330509937   11.48134347295540
H         3.55732323339038    0.38273056045227   11.98922926827558
C         3.35130261030934   -1.51783621725640   10.96364574154394
C         4.73976688948449   -1.96991136266711   11.11208220696083
C         5.51131367013564   -1.62981330683477   12.22218812389150
H         5.08377055794931   -1.05341737726646   13.02702797323732
C         6.82741921948169   -2.05405599160182   12.27809020668192
H         7.45058799566989   -1.79126121184420   13.11958907557853
C         7.32695426205024   -2.82186004283382   11.23828522220101
H         8.34870539987923   -3.16586807010533   11.23857163366258
C         6.47911931420001   -3.13868025635929   10.18725658906135
H         6.82050383935014   -3.75499632262146    9.36575234622162
C        -0.54920954601290   -0.35308334717328   10.58135906299028
C         3.86306027736356   -1.65942079967876    5.66510122234912
C         4.13570287782960   -0.42517395862901    5.06917832273917
H         3.38852193054461    0.11182763656338    4.50237187076698
C         6.22719361724158   -0.44408502244444    5.92271861575853
C         5.96164819678792   -1.65645403782387    6.56263364022121
H         6.71384938391578   -2.14949562390267    7.16439608017766
C         2.56691478349378   -2.33520436450803    5.53296910588604
C         1.76417305339416   -2.17759393105877    4.40462156322629
H         2.10373921796354   -1.58148456047918    3.57280891587067
C         0.53157502308831   -2.80586273503701    4.36705633628533
H        -0.11570545024793   -2.68710552044073    3.51123562599324
C         0.14671242626441   -3.58746376333509    5.44443637632898
H        -0.80881690817622   -4.08655727111481    5.45966087121359
C         1.02168751276221   -3.71254128840636    6.51349470190008
H         0.77095946705307   -4.32993176322678    7.36631273274667
C         7.51086602940759    0.14817338813487    6.04845518925603
C         3.36918570511199    0.30525246653864    8.14027682354515
C         3.22280444162038    1.83862804524472    7.89731768568965
F         2.35065112976931    2.39665844206906    8.75274702452000
F         2.76548571748318    2.09126758620073    6.65687693384790
F         4.37593918263840    2.50448126954489    8.02816084700816

