69
CSD_code = BEMZOI | q = 1 | S = 0 | Stoichiometry = C28H32N5NiO3(1+) | MND = 6
Ni        2.40051000014785    1.21783302003024    7.38421839442293
N         3.66104037979582    0.89518201768975    9.20272058709186
H         4.62424752051053    1.20330101132058    9.08050551031155
H         3.68227806452487   -0.10566154205604    9.40763298157149
C         3.07236839272719    1.59084392149108   10.35280029360823
H         3.05975742269938    2.66497153826348   10.12191129723656
C         3.82695850300889    1.40034332224907   11.65052060244407
C         4.46519765840610    0.20696952363296   11.96455054895100
H         4.45439045066770   -0.62597868933115   11.27654871415047
C         5.11613910124696    0.06199095581407   13.17699260456202
H         5.60694224528432   -0.87054303839895   13.40880434177695
C         5.13515009314096    1.10286539867551   14.08882841961945
H         5.64271114370088    0.98633136752853   15.03347655399928
C         4.50136468386304    2.29492585655877   13.78279647955507
H         4.51279928814934    3.11250198031127   14.48684241324974
C         3.85286345488452    2.44184790207047   12.56994974503002
H         3.36138137829313    3.37558572595319   12.33530928258770
N         0.93229107225726    1.15307522764105    9.18534328403910
H         0.47347228707710    0.25348749923456    9.03271100404199
H         0.20382564814585    1.86355677891888    9.18120295743185
C         1.59321579766163    1.11333591834787   10.50915260211491
H         1.10713923457649    1.82089269155741   11.19011095178894
C         1.54526086271081   -0.25926766974774   11.14050407613852
C         1.69890732381250   -1.41821878288625   10.38702565618496
H         1.82266846360765   -1.36566065190879    9.31286519247491
C         1.69363263135995   -2.65572767198110   11.00940611508958
H         1.81222063240467   -3.54911209535305   10.41552220487158
C         1.54101215405513   -2.74890369762183   12.38171370041973
H         1.53930668986780   -3.71468922443522   12.86251472432268
C         1.38715641902515   -1.59736353980719   13.13510813239143
H         1.26419110472357   -1.66100654558418   14.20496332025775
C         1.38804436481591   -0.35987340714647   12.51808909250882
H         1.27019741761148    0.53478123249373   13.11175279135761
N         1.97586085324639    2.79972107644540    7.37735850502398
O         3.16237380526915    2.97695113253683    7.38633602810613
O         2.12586856907227   -0.35013465681451    7.38679294453607
N         3.65199121970734    0.90324160387256    5.55695776947645
N         0.92118738803855    1.13518828112788    5.59126950465140
O         1.02152177676797    3.49239301413187    7.36882662867470
H         4.61374828570711    1.21857985650192    5.67213662668498
H         3.67948362729910   -0.09716908531636    5.35047995400386
C         3.04906593321544    1.59511411870577    4.41184303502726
H         0.47222680672290    0.23138675001488    5.74800960289387
H         0.18630504209417    1.83895758247177    5.59972630572651
C         1.57457696592119    1.10072186637231    4.26392333466543
H         3.02542787468393    2.66862094205089    4.64493054114117
C         3.79630968279637    1.41655557635313    3.10836375433519
H         1.07667107122830    1.80138521511983    3.58440845567368
C         1.54117577235834   -0.27329439627435    3.63467809088288
C         4.44662922282859    0.23187093425262    2.78642170938302
C         3.80031963949207    2.45981234723199    2.19054248040499
C         1.71315564901448   -1.42933221104175    4.38869748363300
C         1.38191747738707   -0.37737635219740    2.25754637222673
H         4.45349298903976   -0.60185886694715    3.47351946436384
C         5.08676770447894    0.09668304052175    1.56709996926067
C         4.43823777188968    2.32272720970781    0.97098146464874
H         3.29958901191682    3.38698170509070    2.43164389351981
H         1.83777920067726   -1.37427221112854    5.46263220832428
C         1.72507241467954   -2.66725678385265    3.76713733943534
C         1.39799261481731   -1.61519037437792    1.64140258413323
H         1.24951478232658    0.51495709546671    1.66347097981731
H         5.58671925646294   -0.82933444338646    1.32883597753221
C         5.08308018267879    1.13880850577126    0.65649915079095
H         4.43234525865278    3.14140670589654    0.26815335606188
H         1.85844048697395   -3.55835642255946    4.36132786324764
C         1.57125936921143   -2.76371476185689    2.39519170971653
H         1.27368884102372   -1.68141295071703    0.57185992618561
H         5.58168715936822    1.02964224087782   -0.29377825038194
H         1.58367440809678   -3.72971961768686    1.91497866082255

