35
CSD_code = BEMZAW | q = 0 | S = 0 | Stoichiometry = C12H12Cl2N4O4Pd | MND = 4
C         3.65271773092862   12.38360045473004    2.42662986828401
C         2.57421480079050   11.82546547610743    3.10930790301131
H         1.61940257306289   12.33008326271295    3.11606044563326
C         2.73613272824633   10.64465645694962    3.80657429631064
H         1.91829060952928   10.20022524424743    4.35241111143560
C         3.97580613389001   10.01889914150448    3.81138129222995
C         5.06101672217568   10.56496106527988    3.12980547365935
H         6.01192549155854   10.05566745014099    3.16297916653350
C         4.90114734365930   11.74498815467315    2.43696177297553
H         5.73732534261483   12.19332671162594    1.90021640909438
C         6.16028905362648   17.18744274582033    3.01940884353198
C         4.90474892932939   17.80914303453493    3.08659637696465
H         4.10793971758979   17.34719589918434    3.66793348734051
C         4.68974631661928   18.99254299746812    2.41452334003957
H         3.73227151316429   19.48971041876843    2.44244595751835
C         5.72592140646163   19.55842600691658    1.67521818231090
C         6.97205100567231   18.94947664442836    1.60302478257881
H         7.75097439367572   19.40915254801547    1.01453111218356
C         7.19032629258656   17.76628769575507    2.28047273401201
H         8.15012312549606   17.27550582446223    2.21468518444510
Cl        5.97262113654419   14.94089192499662    0.66645066782758
Cl        3.90630583810695   14.60914913928189    4.76847121758362
N         3.52845118477156   13.62448525113330    1.75327829036873
H         2.56712967762353   13.97159158157931    1.73696881441183
H         3.94893266846996   13.62433443379554    0.81269143323535
N         6.34160090556719   15.94350308751539    3.67426473712836
H         5.95188010302410   15.92124489609520    4.62710021137909
H         7.31116959034360   15.62093313173030    3.65183020260000
N         4.14496113990447    8.78674009031417    4.53920698641644
N         5.49812526044701   20.79360508764790    0.96922241135541
O         3.16933713146932    8.31909719839685    5.08524110376427
O         5.25161461775637    8.29244858882451    4.55481027078607
O         4.38857882645738   21.27801601523371    1.03104206179481
O         6.43088291413970   21.27363511443143    0.36240209588762
Pd        4.93583777469611   14.78116722572252    2.71625175536626

