33
CSD_code = BENCUT | q = 0 | S = 0 | Stoichiometry = C14H14Br2N2Zn | MND = 4
Zn        1.35046604527433    6.83352471473251    3.52143291354166
Br        2.13116566605442    9.05865197674375    3.65233382652395
Br       -0.62860769375158    5.55074447405550    3.39882667367672
N         2.54595007165787    6.00802838690542    1.89921075744689
N         2.44653979856140    5.85192657326844    5.12684681820501
C         3.61262688995241    6.65479641536639    1.43317401378274
H         3.85377210295742    7.59202369431615    1.91533751766828
C         4.38143769959513    6.18707242739185    0.38819211404782
H         5.23246001772593    6.76268393338121    0.06398187736148
C         4.04632645743902    4.97905568949909   -0.22891683206635
C         2.92875183351926    4.30881555232805    0.27653180133092
H         2.61202702362414    3.37075375664196   -0.15256016012843
C         2.21662819723303    4.85339569560914    1.32460510551068
H         1.34258326387368    4.35216783037200    1.71660037765226
C         4.78860549178028    4.40482464643876   -1.34226372005097
H         4.46512514448191    3.41426020806765   -1.63597377438753
C         5.77963836156987    4.99172503499922   -2.00316085901519
H         6.13355759633998    5.98079197465417   -1.76752781645727
H         6.27277621900169    4.49716504476600   -2.82188623192972
C         3.46546949850722    6.45575404021769    5.73555888901920
H         3.72044202489400    7.44365629501999    5.37786806881067
C         4.16802952025044    5.88518555653572    6.77607363023585
H         4.97422977621373    6.43718659532286    7.22982641775565
C         3.81473400035608    4.61254253786779    7.23201569041566
C         2.74248267732690    3.99292832558785    6.58392822981289
H         2.41191734579035    3.01171848694383    6.88771997155944
C         2.09710020803077    4.63952901602979    5.55078726218920
H         1.25976239918829    4.17622305965399    5.04782478121153
C         4.49050572618092    3.92673048953424    8.32440971290224
H         4.03386588357957    2.99029263752985    8.61882074131356
C         5.58509338552805    4.34513935797815    8.94913219876559
H         6.08971339035670    5.26130991769918    8.69389526736319
H         6.02332397690100    3.77279565454708    9.74825473593712

