51
CSD_code = BENDII | q = 0 | S = 0 | Stoichiometry = C18H22CdN2O4S4 | MND = 4
Cd       -1.39339942167943    0.73275487726251    2.88487549241666
S         0.73033449915620    0.68437728171504    1.27988453002285
S         0.57098335872945   -0.73788140117718    3.87202145013378
O         2.61699933129958   -0.73947264046421    2.22027167317310
O         5.50354077549975   -0.85440786444134    3.05716811350758
N        -0.72581754493079    2.68544925916131    4.07463091501632
C         1.39367698713193   -0.30684887004163    2.46381038570416
C         3.24171228035938   -1.59686274206456    3.16230187412984
H         2.65206057063115   -2.51582594015778    3.26039206973705
H         3.29032999822537   -1.10119702559887    4.13808888309777
C         4.64894975056927   -1.90203061706402    2.67049984889059
H         4.99270764600315   -2.85316082148039    3.10704510057084
H         4.63227491380958   -2.00344832043847    1.57540875729828
C         6.80660076863420   -0.99532067643132    2.55428647503160
H         7.37329168884516   -0.14119271837644    2.91825395101842
H         6.81260860609058   -0.99800333869458    1.45740752332843
H         7.27232870702046   -1.92301660871239    2.91110814870508
C        -1.18836388533694    3.83948842580414    3.59086936646607
C        -1.27118274787750    4.98180875446241    4.38559981458681
H        -1.68256121249192    5.89720079672233    3.99034919775406
C        -0.84995962836163    4.91297100709678    5.70269898137782
H        -0.91264585038547    5.78193168761634    6.34092602604558
C        -0.35439574784833    3.71315848728571    6.18720539346884
H        -0.01316520336313    3.62049399218821    7.20570793555408
C        -0.31969621151602    2.62196070504740    5.33167056712514
H         0.04960288592368    1.65757018475608    5.66218240299105
S        -3.51852209948448    0.68507123868779    4.48869813075637
C        -4.18132370354494   -0.30617194807866    3.30449309522377
S        -3.35657785941126   -0.74056958374495    1.89857317670013
O        -5.40602334692668   -0.73604706282765    3.54599262817114
C        -6.03092515194428   -1.59231994273756    2.60309721593497
H        -5.44341693211107   -2.51282419406113    2.50656132070182
H        -6.07633801051874   -1.09692507323872    1.62701193798447
C        -7.43981063600826   -1.89385105658488    3.09233520521758
O        -8.29031589264553   -0.84230974848300    2.70729996231652
C        -9.59429643321107   -0.97975368793854    3.20876675651911
H       -10.15766941835983   -0.12274712333896    2.84640162926607
H        -9.60118613823140   -0.98507190306011    4.30563468487472
H       -10.06298247764218   -1.90494919170427    2.84933813957849
H        -7.78616479813324   -2.84270200055541    2.65286303955458
H        -7.42487002794082   -1.99815062769570    4.18718473944348
C        -1.61887189448000    3.83818635790330    2.17752623288964
N        -2.06966228773196    2.68013982448076    1.69232050503969
C        -2.47543660483368    2.61401309795725    0.43533172024652
C        -2.45204959142939    3.70656279529913   -0.41885438955612
C        -1.96872213953418    4.91077792873076    0.06709449679274
C        -1.54796489974881    4.98229683261959    1.38419974439545
H        -1.14620244074431    5.90145814650381    1.78059908835789
H        -1.91526834202109    5.78118578272613   -0.57000811705259
H        -2.79238899945722    3.61162044204445   -1.43744674754641
H        -2.83452518806564    1.64618482311574    0.10362092704020

