55
CSD_code = BENDOO | q = 0 | S = 0 | Stoichiometry = C20H26CdN2O2S4 | MND = 5
Cd        0.27979262065703    3.56684396438475    2.46723655045521
S         1.50509189236595    3.72936454040051    4.81500274627692
S         2.56786355057532    4.86524014365101    2.30205823583299
S        -0.96325965161085    3.39743680504937    0.11456708367401
S        -1.87085356120909    5.10299314656756    2.35884019605348
O         3.73551713705367    4.91933429714758    4.68013291330292
O        -3.05683070521944    4.83970849499128    0.02724336613062
N         1.30302407361701    1.48566119228964    1.87150753593610
N        -0.95082275856585    1.74321918279510    3.39237738850462
C         2.69393918198035    4.55946620510629    3.95890524645911
C         4.76268086114542    5.74363237773503    4.13966184597591
H         4.75055333886556    5.67897466092714    3.04698220962815
H         5.69882129192801    5.32848287942464    4.52396496316218
C         4.59538248637264    7.19052458865376    4.59954876584200
H         4.56097668334577    7.20876344313901    5.69088856555647
H         5.47653513171785    7.74769274386605    4.27507497586214
C         3.33510457788544    7.84614431266265    4.03841540508512
H         2.45468427050441    7.30452087268153    4.39212975104028
H         3.34848102424435    7.78279577293319    2.94807367588413
C         3.23066034610184    9.30400295143551    4.46630740079697
H         2.32717954946231    9.75382900146746    4.06267767021865
H         4.08760569704978    9.86986647551219    4.10654193556698
H         3.19843886697341    9.38250373229097    5.55095762801102
C        -2.04419782368158    4.49070093291883    0.79594325490572
C        -4.01170536087800    5.77114638768044    0.52095245281271
H        -3.49986400763520    6.70315423732218    0.79092215022844
H        -4.47344311483435    5.36564065201634    1.43004752545193
C        -5.04938398126853    6.00779930033686   -0.56636657566483
H        -5.51255183962444    5.05337492101984   -0.82261979203531
H        -4.54314148220915    6.38215971778826   -1.45759571802062
C        -6.11591674001312    7.00196120781852   -0.11546683025258
H        -5.63893738057790    7.94810256807065    0.14842110898995
H        -6.61035454845301    6.61987112599210    0.78021494881444
C        -7.15229070951163    7.24132913820902   -1.20625438889868
H        -7.90606034766839    7.94799205801350   -0.86802676053671
H        -7.64804654171441    6.31059872585984   -1.47225238741940
H        -6.67963760607971    7.64398233674070   -2.09896946631109
C         0.59410284244517    0.39300581229845    2.16065208466194
C         0.80280295753043   -0.80994990365154    1.48767530998721
H         0.19507185405537   -1.67408893783421    1.70493952294877
C         1.78050798104770   -0.86936208722749    0.50922773614340
H         1.95555573575688   -1.78787293482073   -0.03117032990879
C         2.52352674027723    0.26691870198121    0.23305948695224
H         3.29675028950647    0.26012374604991   -0.51827496451202
C         2.23883753754522    1.42634952614418    0.93901533052677
H         2.78264951988380    2.34602324635786    0.75424964684728
C        -0.42597713139892    0.52905179382290    3.22057356805050
C        -0.81373499926003   -0.55000420931776    4.01393505834343
H        -0.35427921443405   -1.51767289708065    3.88838407789188
C        -1.77467060292917   -0.35229150420675    4.99076175828052
H        -2.08580214007747   -1.17102619588831    5.62262060661952
C        -2.32326399159341    0.91041195387759    5.14722025258809
H        -3.07563643819140    1.10401206809483    5.89481970767417
C        -1.87020056149473    1.93063408320691    4.32407617025584
H        -2.25897479979011    2.93922264330624    4.40978939931106

