62
CSD_code = BENDIH | q = 1 | S = 0 | Stoichiometry = C21H33CuN7(1+) | MND = 4
Cu        3.71532342644080    0.10096922288829    4.39282780766056
N         5.23785024627629    1.41682644746266    2.88766376114648
N         2.42258892217182    2.64593224595414    3.79781989039435
N         2.57623497738900    1.68873392936681    4.72409484587945
N         6.23983583362485    0.51414163764948    5.79102971131384
N         5.20668116496709   -0.32477890749875    5.62801517478326
N         4.14476483282272   -1.45018327050528    1.95969993533020
N         3.26755575788558   -1.16370680266127    2.93252088716818
C         4.55299372840830    2.66779324897186    2.57017215367709
C         3.02432868283268    2.49645264956922    2.50283885318583
C         1.96990153833036    2.10022600711452    5.83031735122707
C         1.41187575956169    3.36484441297067    5.60333779913449
C         1.72215788421761    3.68925065772489    4.29769884530322
C         1.94534899820712    1.27162579010159    7.06052540067207
C         1.39385106283184    4.90535461525885    3.51423803110086
C         6.47738509923228    1.65252179253346    3.62443569796031
C         6.23777008596510    1.79320507985734    5.13888526233657
C         5.48777190197812   -1.44026522194570    6.28925866763234
C         6.74494600425906   -1.31020083989607    6.89326799518165
C         7.20291227403409   -0.05309484976079    6.55240694282591
C         4.54678051655206   -2.58666560855201    6.32103064741571
C         8.47343220783817    0.62636535299790    6.90531046383675
C         5.46535637164129    0.60767765595242    1.69265505686233
C         5.47064437030041   -0.90074556248212    2.00143920210163
C         2.12028477535704   -1.75483648607307    2.62466537734304
C         2.26903270771172   -2.44012378936765    1.41204901704063
C         3.57153545651946   -2.22270757136978    1.00912477966628
C         0.92716739704765   -1.64652358804534    3.49949718823748
C         4.28792939608815   -2.70244590540799   -0.19798724195104
H         4.91537467919834    3.07944028918455    1.61701292994727
H         4.77683318525419    3.39912556531265    3.34962868404122
H         6.98749216656815    2.55245482469042    3.25159958986571
H         7.14851534815005    0.80587460173492    3.46558999991316
H         6.41411705947185    0.88356263370867    1.20986907551142
H         4.66415452911661    0.80354351479161    0.97702457177775
H         2.78289872236782    1.49605323926773    2.13237047138350
H         2.59258254726220    3.24191430414296    1.83476844152458
H         5.26394928824916    2.25913225243652    5.31438829274292
H         7.01792950593708    2.40914173951710    5.58655568865601
H         5.87374036454224   -1.06854703341378    3.00424429970048
H         6.08511023910417   -1.43039567101520    1.27324321474182
H         0.85540544785406    3.95711153445703    6.29904399711846
H         7.24657956915647   -2.03577863139244    7.49851068073113
H         1.52571728435573   -3.01735256520399    0.90344046536902
H         2.24760480528266    1.86182062802706    7.92296481521710
H         0.93893467254482    0.89926726034226    7.24633097192255
H         2.61994276703949    0.42538388447968    6.94319453270842
H         0.85135182451042    5.60397206257172    4.14398281775118
H         2.29636468076520    5.39550829726337    3.15047650895270
H         0.76716942611421    4.65913470382904    2.65732670950723
H         5.06308003232911   -3.50987941400028    6.06681089598485
H         4.12538616635964   -2.70310062927617    7.31845821382793
H         3.73853722635643   -2.41434579648364    5.61262663800573
H         9.08792173738207   -0.04426843524155    7.49825973731097
H         9.03056696011454    0.90877639880196    6.01258099491066
H         8.28446745925350    1.52558312482421    7.49126149067352
H         0.05322634040361   -1.36121233077237    2.91793660735252
H         0.71618017297472   -2.60498995550074    3.97164441328441
H         1.10885679178484   -0.90294097833992    4.27344060602631
H         3.60623699027379   -3.27896292666224   -0.81594987095419
H         4.66957834631984   -1.86935102381611   -0.78736823687671
H         5.12635228311136   -3.34261781107061    0.07569224690509

