59
CSD_code = BENDOP | q = 0 | S = 0 | Stoichiometry = C28H24N2NiO4 | MND = 4
C         4.94953177085894    0.46816437440104   12.74706607479765
H         5.43711744775207   -0.44553719370119   13.05606786886708
C         4.39283894557105    0.56796709699878   11.48478257013642
H         4.43927665640945   -0.27357013325183   10.80951559311623
C         3.77288459694203    1.74169366505884   11.08991601730691
H         3.33398440714082    1.81703320530023   10.10615425155173
C         3.71280513011967    2.81756540560717   11.96050132860016
H         3.22167949218572    3.73073762438136   11.65819400273161
C         4.28065266887268    2.72775897779701   13.21852107325620
H         4.22713948915311    3.56128754495964   13.90317379923641
C         4.90893646146946    1.55218118651948   13.61883779835051
C         5.47503824390122    1.41755203258687   14.98335715423841
C         6.47010046915568    2.33858943949849   15.43682133964148
C         6.92489510198530    2.27936631461415   16.79584353810967
C         7.89122374706127    3.22452133016725   17.19759905963946
H         8.23553785559477    3.20349677579853   18.21922859921546
C         8.41736849469990    4.15776070688295   16.32972739647368
C         7.99244440668125    4.17927979252299   14.99002490537616
H         8.40599581826635    4.88250714009274   14.28572339812046
C         7.04327505970442    3.28505303568556   14.57205349499398
H         6.73620695006348    3.29802367945563   13.53657486330308
C         9.93016992677596    5.97274042233080   16.01906456246461
H        10.48027997414054    5.51355227034357   15.19127784220789
H        10.62695810581077    6.52192832370148   16.65081132405744
H         9.18322671198842    6.66628387373699   15.61929444566575
Ni        5.35700220229174    0.00002290948456   17.48425599508794
N         5.02914709962200    0.44865370329771   15.72676078534909
H         4.32199534158730   -0.13450791812978   15.27073927473065
O         9.34444028272449    5.00360019739353   16.85379607418487
O         6.50609728764917    1.43163909380988   17.66751526370328
C         5.76429692162788   -0.46804861585513   22.22146161198652
H         5.27669544136901    0.44562835881936   21.91240912665545
C         6.32090981296821   -0.56780598869368   23.48378410196853
H         6.27439906542582    0.27374468978638   24.15903203798514
C         6.94089394632638   -1.74149612656455   23.87870936709647
H         7.37973107335335   -1.81679984212386   24.86250212574608
C         7.00109065939169   -2.81737417884011   23.00814202500509
H         7.49223253361775   -3.73052187360609   23.31050000928487
C         6.43332138124931   -2.72761498990641   21.75008369656319
H         6.48691422477262   -3.56115373751396   21.06544821135070
C         5.80500143443809   -1.55207672755748   21.34971031475991
C         5.23896240547488   -1.41750036034808   19.98515931642020
C         4.24394914057806   -2.33858059785543   19.53167524541196
C         3.78917950564190   -2.27937615503486   18.17264470140517
C         2.82294004889107   -3.22460728162776   17.77085213523085
H         2.47865863788746   -3.20360534884711   16.74921089073766
C         2.29684521750095   -4.15789571624945   18.63870058555986
C         2.72171915735906   -4.17937798779061   19.97841995247087
H         2.30819291742883   -4.88263359179456   20.68270811680210
C         3.67080769221912   -3.28508114397500   20.39642468981727
H         3.97784078954651   -3.29803139831414   21.43191359984312
C         0.78420312530860   -5.97301889300823   18.94929962077934
H         0.23401668967927   -5.51390024605830   19.77707410176320
H         0.08749507727072   -6.52227367208848   18.31752270532284
H         1.53120763286903   -6.66648723091973   19.34908539881922
N         5.68486097017699   -0.44860832034594   19.24175092533435
H         6.39198209574342    0.13457702336958   19.69778925764631
O         1.36985887179625   -5.00380746398785   18.11459865725832
O         4.20794338390875   -1.43161746041362   17.30098777646118

