61
CSD_code = BENFEF | q = 1 | S = 0 | Stoichiometry = C17H35MoO6P2(1+) | MND = 9
Mo        1.87892984119269    3.49845116623234    0.02779069731248
P         3.24230609303714    4.93532176811281    1.34714570664724
P        -0.10683179254078    3.29097095864615   -1.32319110800609
O         3.61606612932443    4.16768408480724    2.68643272933146
O         4.70422740190060    5.35759121612976    0.85364870213497
O         2.75275770363245    6.39792496784722    1.78664421668519
O        -1.30037834937796    4.36094163812704   -1.24971615909482
O         0.04045157239349    3.27921065317701   -2.91290325417065
O        -0.75863805372594    1.85704728581709   -1.10792211222132
C         4.47829494349376    4.76585763735760    3.66717669268359
C         4.87384204583714    6.24372044154465   -0.24676740665851
C         1.42383418242462    6.87676660774274    1.89923297379210
C        -1.72117046139148    5.08819624665699   -0.10742185048859
C         0.45529380721195    4.43212272452204   -3.63503456830810
C        -1.93299321866689    1.45693346747369   -1.83008367068806
C         0.84225979501725    3.67523748512200    1.55948230353460
C         0.23974977144573    3.67783499719323    2.86468332213849
C        -0.63906735165962    2.43679148399154    3.19521904702408
C         0.16336192791668    1.15929205951455    2.96645010164880
C        -1.87395968231616    2.43968254316192    2.29606291290777
C        -1.06511869024770    2.52768950427687    4.66072303818744
C         3.65770498804947    2.70101921181986   -1.29249690677159
C         3.97537344102104    2.49345637771921    0.07419137746526
C         3.03689138120700    1.58415563544891    0.61888595753866
C         2.11570871092952    1.26342727741405   -0.39029581855099
C         2.51790164692952    1.94705415819001   -1.58398461665337
H         4.28246956674518    4.25106465289424    4.60632424871191
H         4.26572668711183    5.82991647158713    3.77083721625230
H         5.52090644430130    4.63178308158781    3.38167121707646
H         5.92996939742415    6.21197675284729   -0.51123522823922
H         4.59509637488987    7.25858911466165    0.03701468821356
H         4.26418218721158    5.92973137078585   -1.09735401520225
H         1.47713980234166    7.96001514474470    1.78542401478928
H         1.01381844107704    6.63601134609724    2.88120734248480
H         0.79781492060024    6.44904525894898    1.11126653789582
H        -1.84709337638645    6.12938958970603   -0.40812481003635
H        -0.97126688849826    5.01098590184532    0.68286037572569
H        -2.67554919526601    4.69118546816450    0.24059018953336
H         0.49402232596631    4.14040540156349   -4.68356870131521
H         1.44216787080693    4.76351391425997   -3.30311774072962
H        -0.26080750965329    5.24315894048442   -3.50399108592996
H        -2.42524810531959    0.69802109771981   -1.22422726814503
H        -1.65091413398197    1.03871433571468   -2.79538706344235
H        -2.60066339605844    2.30459382204947   -1.98417521430768
H         0.41110550548734    1.05997981596583    1.91233067559223
H        -0.41897287982912    0.29240423901725    3.26799005722735
H         1.08225678586489    1.17148219919936    3.54802672191328
H        -1.57554303063935    2.41979830048788    1.24921911020837
H        -2.48110181221581    3.32405994484247    2.47709742500440
H        -2.48378158686882    1.56303977188757    2.49918629366849
H        -1.71002359799966    1.68992025677732    4.91335279512438
H        -1.61483152852829    3.44667698661290    4.85201873996678
H        -0.20069836079580    2.49937214178348    5.32010257870375
H         4.27380981568206    3.23088609981421   -2.00683461391389
H         4.90113971696029    2.79205436339484    0.55168626019247
H         3.10990333985872    1.12284895750767    1.59391189684012
H         1.38286631523149    0.46802450031065   -0.35706240136236
H         2.11401922160837    1.75885125903170   -2.57156580796694
H         1.70043807027572    4.94166421975955   -0.68298096308189
H         1.07116413423589    3.69926154498930    3.58279607246833
H        -0.36671930463046    4.57589213481184    3.03455814857091

