56
CSD_code = BENGOQ | q = 0 | S = 0 | Stoichiometry = C20H28MoN4OS2 | MND = 6
Mo        9.84348950755515    1.31370625020815    3.48811824090324
S         9.48489801854858    0.22111796635556    1.30977674819851
S        10.18086428586183    3.25558029717993    5.06111910549758
N        11.76282272176733    1.99470736027874    2.35607687057367
N         9.20789065982497    3.32563166188915    2.13480276292763
N         8.18107864577808    1.06195498685005    4.00709697191520
N         7.13259962561959    0.66124020432810    4.64980075925505
O        10.86568286311696    0.29574803866896    4.28936411806213
C        11.16060894530612    0.32464434645047    0.58313249063561
C        12.17438761667381    0.79957811005548    1.60621739533340
C        12.81285194272684    2.25664570034246    3.34569097485908
C        11.60855352832795    3.17482742887872    1.49513835942550
C        10.16604240119807    3.39240066266704    1.02521807525145
C         7.86437435742467    3.14817765751330    1.57700912370871
C         9.21606127839123    4.57386837372768    2.91484544532441
C         8.86678829789644    4.30552045028000    4.36875408331004
C         5.85745748531886    1.04796401003361    4.18045998333518
C         5.59458809870168    0.97917847496434    2.81459993877403
C         4.37554920770334    1.40759365726643    2.32419363655968
C         3.41223414625678    1.90311356592804    3.18820164036290
C         3.67239212497815    1.96728660553982    4.54867116040824
C         4.88932239479245    1.54581820344439    5.04988945430666
C         7.25851514105510   -0.16638897101198    5.78070268009548
C         6.20878254042422   -0.99281104690746    6.17940673961601
C         6.35370537883277   -1.79814322845210    7.29272605981840
C         7.53853720017839   -1.79790632277543    8.01058068435288
C         8.58666565552695   -0.98823521330149    7.60286107987829
C         8.45564862968983   -0.17315049091961    6.49494781279770
H        11.42448397217485   -0.67976675917937    0.24648923855190
H        11.11829137666878    0.97474495896041   -0.29476775243125
H        12.31158017390325    0.00027578361299    2.34344082911293
H        13.13936637871737    0.98703026860357    1.10108249750335
H        12.90214612686365    1.39399869330847    4.00591432976377
H        13.77731136012288    2.44306170577980    2.85464524883197
H        12.54410015826619    3.11497332917923    3.96297773349332
H        11.92658664180474    4.05230965790561    2.06704053290307
H        12.26239270860905    3.10548438177517    0.61298025031598
H        10.10417818521964    4.36838711428093    0.51564431293171
H         9.88460872418170    2.62339372069979    0.30272003142644
H         7.62451499651662    3.96001624161266    0.87620114686525
H         7.80337355822067    2.19566970919157    1.05048361722161
H         7.12727628441721    3.14821249224851    2.37797921593531
H        10.21794686070275    5.01352615070691    2.90066262693661
H         8.51883875741269    5.30256138911455    2.47235743520007
H         8.85254850423230    5.23607988700092    4.93815232346786
H         7.90506542691871    3.79690285497932    4.47512624869445
H         6.35226010581001    0.56901123255215    2.16057137938159
H         4.17353150190825    1.34545077261351    1.26513406361959
H         2.45970738708836    2.23592127304490    2.80423410443749
H         2.92361883632633    2.35576480223793    5.22316253085753
H         5.09995509268159    1.60296550347414    6.10750965103043
H         5.28956500352510   -1.01430861631305    5.61278616515842
H         5.53710389467913   -2.43751158588344    7.59541350861713
H         7.64547990486636   -2.43095301630431    8.87867901036250
H         9.51485992983090   -0.98659832475734    8.15395342633758
H         9.27321544884182    0.46142764008028    6.17252389798631

