33
CSD_code = BENGLY | q = 0 | S = 0 | Stoichiometry = C13H14CrO5 | MND = 9
Cr        0.89696678026642   -2.65902578229564    1.90948741027991
C         2.09143295966004   -2.35500356007559    0.04728363033130
C        -1.20862775044213   -3.50221857112400   -1.61830077659276
C         1.85878101856772   -4.10647208049403    2.43350265053213
C        -0.44397396066210   -3.85511614356209    2.15695034795746
C         0.70016928717329   -2.47983506148211    3.71455432941331
C         0.73319311489553   -2.43949471156773   -0.31930215750367
C        -0.17694945688770   -1.52845469277771    0.26054266960537
C         0.24333606222534   -0.56875620186710    1.18064694616461
C         1.60047410911228   -0.49668285946224    1.54539113347520
C         2.51528454146202   -1.35892750612047    0.95499247028565
C         3.18107227333478   -3.20610517919288   -0.58309367420639
C         3.80065654463619   -2.44231958488638   -1.75811418170779
C         0.27718275226714   -3.53783322053200   -1.27021103286444
H        -1.81628663310651   -3.62484046504783   -0.72249068653683
H        -1.47411109042392   -2.57418143088477   -2.11834570537105
H        -1.42666849056001   -4.32836526565668   -2.29118690790603
H         3.91845091275881   -4.13049249143486    0.97669043157900
H        -0.00657088865698   -5.02878484659200   -0.03167350098501
H        -1.21245094695386   -1.52421817894880   -0.05404500750772
H        -0.46269079335599    0.15438621561300    1.56989547663578
H         1.93837084949252    0.28401254842011    2.21649015041390
H         3.57500864534050   -1.27328766001401    1.16290192511184
H         2.76313680379353   -4.15287794741285   -0.94304783856682
H         4.25004564999133   -1.51892634451528   -1.40062585738302
H         4.57782846173412   -3.04980568376529   -2.21240146746519
H         3.04506295581024   -2.20845528528423   -2.50389541794565
H         0.85759566340389   -3.46626171860205   -2.20091929418788
O         2.41848056943036   -5.05647461336468    2.78744946345254
O        -1.25884766144058   -4.66117213005293    2.33529036155959
O         0.56334127763740   -2.45459137669854    4.86039240206122
O         4.21629565801060   -3.46540124855715    0.34552643596556
O         0.62611078148633   -4.80021692176144   -0.72523472809358

