73
CSD_code = BENJEJ | q = 0 | S = 0 | Stoichiometry = C38H30HgN2P2 | MND = 4
Hg        1.35763358973498    5.28745863431118    0.93806528945864
P         2.18351850746138    2.85692031074336    2.14931640337629
P         3.54403209238903    4.89741949555709   -0.81091005145135
N        -0.95112364530995    4.24363597834184   -1.19735311636259
N         2.62921826163157    7.25854009384324    3.28187501932477
C        -0.18470776017825    4.62739015953058   -0.43101996425175
C         2.18060261026252    6.61585315166553    2.44055421353159
C         3.87194499452541    2.94099212368260    2.82074325396546
C         4.11901097738414    3.26163884743901    4.15140560855222
C         5.42121605146513    3.43062636984039    4.58706123074258
C         6.47930002005032    3.28903333907416    3.70464253558280
C         6.23581773561458    2.98291882400164    2.37523298280799
C         4.93796877311795    2.82018560423813    1.93193095373831
C         2.14669906858718    1.30286328383568    1.19995881340530
C         1.04920335066408    1.12946176050019    0.36072922181557
C         0.91071274020913   -0.03361190550190   -0.37211511618025
C         1.87557161461712   -1.02357988319355   -0.28509348955831
C         2.97151298259174   -0.85195160202459    0.54429307514180
C         3.10875821034113    0.30309847233361    1.29295239862805
C         1.20844502688722    2.41898410679781    3.62553613395220
C         1.05648996834117    1.10552197510306    4.05695240740296
C         0.31880414796538    0.83793525340483    5.19558021527433
C        -0.26731050695289    1.87141730291654    5.90866481126059
C        -0.11939402609555    3.18067045020253    5.48112383349393
C         0.61214284364696    3.45413080534371    4.34033868568708
C         5.23482768267795    5.44138951906643   -0.40555589046640
C         5.53203295553268    5.79472571595443    0.90516624006294
C         6.80487020226917    6.22797651268968    1.23247436503655
C         7.77957820346069    6.31286089969388    0.25341725912853
C         7.48053299090399    5.97698482726210   -1.05896218662167
C         6.21106347439865    5.54706721442929   -1.39358745245305
C         3.21611536253699    6.00257056313228   -2.22466648913202
C         2.91927894992583    7.32488359378710   -1.90279988601278
C         2.67052799245752    8.24542069144568   -2.90150474483948
C         2.71090231733532    7.84964911372017   -4.22927156522218
C         3.00252928564493    6.53535507001559   -4.55236995504222
C         3.25675820213288    5.60887157388106   -3.55617911201114
C         3.74511526677165    3.27384514370378   -1.60662381081721
C         4.93300256117406    2.55156146347094   -1.61320496939732
C         4.96338484359699    1.28360051253513   -2.16749924625286
C         3.81897430922619    0.73348627462732   -2.71903526878743
C         2.63317945390948    1.45067621338900   -2.71384505410405
C         2.59060247154920    2.70952258230008   -2.14786145525176
H         3.29607026006016    3.38171140411665    4.84176537055912
H         5.60923379564652    3.67957323347879    5.62102018119872
H         7.49351988515751    3.42415559356294    4.05003790582729
H         7.05797095596796    2.88285820839454    1.68113766936505
H         4.73638853480035    2.59658173452443    0.89237510956986
H         0.30509317236880    1.91341025979435    0.28505100715739
H         0.05237476512456   -0.16456700973403   -1.01390346925311
H         1.77420650609655   -1.93052119560317   -0.86272564479309
H         3.72239424135856   -1.62560707361596    0.61576677183786
H         3.95895627787517    0.42368996791878    1.94977683910770
H         1.51043607908686    0.29747229688939    3.50070707834839
H         0.20051788082861   -0.18303707677627    5.52809014941183
H        -0.84302545550806    1.65563489944982    6.79640159207817
H        -0.57672177853550    3.98844708942219    6.03289211142538
H         0.72838131594957    4.47772540804683    4.00102523760107
H         4.76537625722410    5.73692531907619    1.66760128489213
H         7.03047731269067    6.50094733995563    2.25234082304149
H         8.77366280258153    6.65001472464199    0.50788991602894
H         8.23950010147036    6.05596501692656   -1.82389112778103
H         5.96864723270392    5.29699974131704   -2.41803110404409
H         2.88881147324671    7.62549450738142   -0.86040341130164
H         2.43998217178717    9.26905510144664   -2.64600238861484
H         2.51054689450758    8.56620072193687   -5.01182974366412
H         3.03145203227348    6.22652842176490   -5.58720064706448
H         3.47779183691897    4.58277715181076   -3.81533183647086
H         5.83276320580316    2.97884675874387   -1.19161705352120
H         5.88772164722143    0.72415693289684   -2.16823486484506
H         3.85046354728484   -0.25562106794941   -3.15108959496613
H         1.73926252466115    1.02539558652018   -3.14428766694815
H         1.66200036701102    3.26728556663762   -2.12348662077425

