87
CSD_code = BENJEL | q = 0 | S = 0 | Stoichiometry = C40H39CuIN3P2S | MND = 4
C         8.36541473604346    3.02499963434637    1.40957796969820
C         7.21914392748759    3.04281262790224    0.62262398968243
H         6.29121139581612    3.43351893100653    1.01831305557858
C         7.26338290734850    2.55699584868004   -0.67219412457562
H         6.36725344904283    2.56824820108965   -1.27624597934184
C         8.44484251716049    2.05870756433939   -1.19462968672201
H         8.47250856392555    1.68420307477560   -2.20703012731691
C         9.58817897704866    2.03042601924443   -0.41346458889552
H        10.51028602709226    1.63367066005848   -0.81068515701935
C         9.54399206925175    2.49270464194759    0.88703309588997
H        10.42715171066118    2.43338272397620    1.50959848214655
C         9.25714957182210    5.13462309714150    3.12164333154171
C        10.20449211374116    5.47893176662016    2.16326951179339
H        10.40850428055629    4.81337240049398    1.33687628591282
C        10.87979457959058    6.68284546295616    2.26101272543812
H        11.60950128833947    6.94657158988701    1.50945222185265
C        10.62700863338604    7.54406579610390    3.31542225636476
H        11.15559058171113    8.48348129175760    3.38422247568566
C         9.69479780116552    7.19895324455996    4.28163015307643
H         9.49826636133332    7.86384087458016    5.10972625888382
C         9.01801722684128    5.99937384225250    4.19011573945624
H         8.29188409127799    5.72581131548144    4.94529732220894
C         6.71447348546208    4.05715310251177    3.51707847028245
C         5.98042253729461    3.34242507251858    4.45572955444462
H         6.43700502939375    2.50562292322173    4.96785163340830
C         4.67712540771669    3.70727097138413    4.74427796674701
H         4.11109873897050    3.14418083813100    5.47181723463832
C         4.10491162035774    4.78939598202197    4.09860196051112
H         3.08669017422096    5.07491243376653    4.31965156751066
C         4.83914886806589    5.51530320040324    3.17186261130977
H         4.39265549818827    6.36450508133309    2.67446856500855
C         6.14101455499378    5.15632185406075    2.88090798285830
H         6.71908506376979    5.72460701195838    2.16395361094082
C         8.62917658597674   -0.63999506053530    1.88097690940481
C         7.66708325065251   -0.85315674595525    0.90240585572800
H         6.61694149208791   -0.74086167716774    1.13155976368755
C         8.05347646772327   -1.22950472148410   -0.37195498537852
H         7.29959501598845   -1.39764778586079   -1.12791403428192
C         9.39274937603094   -1.39668578457884   -0.67899909884893
H         9.68531735257383   -1.69212571848345   -1.67600726845357
C        10.35624482717565   -1.18671942714480    0.29493856157722
H        11.40305947229519   -1.31697744578659    0.06331284417701
C         9.97750333947334   -0.80530279981896    1.56615176366021
H        10.72678412806199   -0.63807397819438    2.32833423718337
C         6.49608256273098   -0.23342623394869    3.75891294001344
C         5.88547081755552   -1.04170377663626    4.71161880348388
H         6.48595094763834   -1.69105930341063    5.33341344653782
C         4.51052933659829   -1.01122096932936    4.86178349646843
H         4.03985029038454   -1.64393449869622    5.60048669297831
C         3.73767620614988   -0.17279769659481    4.07529999474139
H         2.66450609509976   -0.15409019301676    4.19715472746396
C         4.34330070142654    0.65200997723873    3.14045533758643
H         3.74589316503985    1.32050196131113    2.53668224553207
C         5.71596135103812    0.63138679402170    2.99172134514877
H         6.19899120515859    1.29166092476379    2.28145557387571
C         8.90291158874688   -1.55990598679202    4.50191243498403
C         9.56444229535334   -1.35334471888849    5.70714723586976
H         9.68973270543260   -0.34571681598145    6.08099062966228
C        10.05675683987387   -2.43175483152936    6.42038471246368
H        10.57618715663193   -2.26808121538180    7.35280803138295
C         9.88992486727883   -3.71621735301733    5.93173078287523
H        10.27821823028708   -4.55906827582752    6.48465764975447
C         9.22830323841137   -3.92530819563433    4.73080787127918
H         9.09941159644579   -4.92915839521978    4.35210966302812
C         8.73611052325064   -2.85289963127864    4.01256379856915
H         8.22429494597387   -3.01050700496237    3.07239918147702
C         9.39787505332861    3.78114153836364    6.88627768996714
C        12.10505695429597    5.86850767744893    6.14534157834275
C        12.91142788655615    5.22057243297797    5.06639329761424
H        13.34352813486469    4.28215401386127    5.41427045976458
H        13.71586799370344    5.87415478937948    4.74507708426308
H        12.28536382756795    4.98892374019725    4.20524882162527
C        12.57034475914075    7.19562151895721    6.64751315525094
H        12.59050013004567    7.91091513597616    5.82683021931523
H        13.58230441808358    7.10676253103182    7.03970789261734
H        11.91224190531472    7.56230220951133    7.42981292010758
N        10.54275696296141    4.19261058289979    6.31545151621949
N        11.05376520585315    5.39635701769785    6.68413932165819
N         8.80948893577452    4.63219272971039    7.74450854784596
P         8.41910490460546    3.51587240606753    3.16250343937105
P         8.30133391054691   -0.10318113162997    3.59128854123700
S         8.70566295552703    2.30583364306162    6.54188850918299
Cu        9.45342709907825    1.75615735912131    4.14683611604068
I        11.97072878358126    1.62878172324605    4.11657044064735
H        11.01431074301003    3.57648574629587    5.64748846377700
H         8.04256585290124    4.30273959361577    8.30284811531070
H         9.34570181969371    5.44014224548159    8.02433635711724

