41
CSD_code = BENKUA | q = 1 | S = 0 | Stoichiometry = C13H20N5NiO2(1+) | MND = 4
Ni        1.00019268231684   -1.11414921071865   -1.93930299274364
N         1.75137203464478   -0.69375977061025   -0.36311496740878
N         1.28832788794482    0.72684436153253   -2.31439227646694
N         0.05250515810887   -1.49414727742540   -3.60882980265678
H         0.66068213328546   -2.14069339465663   -4.12008974751121
H        -0.78705350877759   -2.01530049201334   -3.34375311080468
N         1.01021562924035   -2.94338544819880   -1.18730987015063
N         3.57520502228800   -6.58867364794380   -1.72885755277443
H         4.26017929688475   -6.83586529645600   -1.00490230200219
H         4.07511961819832   -6.31103655817993   -2.58265869891370
H         3.00072122440264   -7.41465643903942   -1.93847871392166
O         2.04676629602078    2.65429631059428   -1.33261697265973
O         1.56443275266912   -4.00828336935485    0.76927936931309
C         1.87018570102971   -1.63520877142425    0.56984898379735
C         2.33773510266384   -1.32476818258342    1.83872247875531
H         2.41817711039390   -2.10866208930733    2.57507861709348
C         2.67466952243310   -0.00626728599276    2.11655421594135
H         3.03598152731641    0.26440646653106    3.09690295644754
C         2.53880862773915    0.96145714326235    1.13115445572529
H         2.78041603165862    1.99896554250284    1.29880915779215
C         2.06316813632061    0.57462886346315   -0.11419142186220
C         1.80789506079391    1.45997746603617   -1.30836322299108
C         0.97318046288852    1.47629848915872   -3.51810096625748
H         1.78803588409874    2.18762402775664   -3.69807804062173
H         0.05558511890996    2.05875868926752   -3.36146529351866
C         0.80544935973611    0.57199473430271   -4.73547950872032
H         0.60187174570605    1.19202571744565   -5.60774114407344
H         1.73335181799857    0.02165688553603   -4.91322679113102
C        -0.34088183776293   -0.41486442952491   -4.53651269008502
H        -1.20008694014153    0.10990636357038   -4.11332213816016
H        -0.63605246394922   -0.84553859004516   -5.50128403010155
C         1.45925596360959   -2.99283628259458    0.08254092928932
C         0.54813614959061   -4.22084375313494   -1.69579305841980
H        -0.21533717864406   -4.06720643667737   -2.46160624437749
H         0.09760325207936   -4.78442907605479   -0.86858988267436
C         1.67464633666477   -5.08277241043291   -2.30927628546126
H         1.21167868529390   -5.97992405194449   -2.72648068669886
H         2.15735008931669   -4.52623121463051   -3.11611948402572
C         2.69497024258968   -5.46951401779400   -1.24998289125567
H         3.32695118967204   -4.61738978663056   -1.00296446422755
H         2.18658907476351   -5.77773377759027   -0.33490591148624

