47
CSD_code = BENKIP | q = 0 | S = 0 | Stoichiometry = C18H22N2P2PtS2 | MND = 4
Pt       21.34267341002677    0.99248000947191    1.01784953206453
S        20.77221268386874   -1.03901221238409    2.01571623798627
S        22.64260913164380   -0.59516741654626   -0.09966819918129
C        21.88626309016559   -1.79305912310746    0.89288588795606
N        22.15765290138678   -3.02743329266955    0.76042703465039
C        21.69190481749341   -4.04812489831718    1.40479871870819
N        21.36246019694030   -5.03941088572790    1.89293480741831
P        19.78866833750318    2.20712319881056    2.23746089420040
C        18.85943392755146    1.32071950081053    3.53694687004075
H        18.03965367562254    1.93706040444298    3.90562225042496
H        19.53936947103500    1.07178186825821    4.35088094260666
H        18.46864200778400    0.39413875576504    3.11877637881669
C        20.23093166963683    3.76360421272924    3.10253963142212
H        19.36763204332694    4.17537003143480    3.62201105335756
H        20.62182595301222    4.49029325662157    2.39274513251500
H        21.00961733677300    3.53852042867711    3.83012758468977
C        18.47392726062579    2.66258823510240    1.06615252984349
C        18.41291265507721    1.91414627431312   -0.10616456354245
H        19.15410622806135    1.12960366627841   -0.26652838622755
C        17.43017726776717    2.16111112736876   -1.04572302774409
H        17.38452987618287    1.57355647100950   -1.95037549323326
C        16.50266305060513    3.16620043988123   -0.82122265342180
H        15.73377969114159    3.36510549611209   -1.55262425948844
C        16.55928906200415    3.91607333129129    0.34233290962298
H        15.83441768972524    4.69789936652903    0.51561984219386
C        17.53849141379379    3.66551909092933    1.28775121177041
H        17.57039561752319    4.25329619035511    2.19356315645165
P        22.24704573690276    2.80011532066418   -0.11674932926564
C        21.18184194875687    4.01977585130979   -0.97830922342158
H        21.78315149496548    4.78343471597043   -1.46825285409671
H        20.49241599491254    4.48046171757286   -0.27303966818312
H        20.60102942259267    3.48764971038258   -1.73069387613378
C        23.50272410314115    2.44140193323948   -1.39452377800490
H        23.97668620891462    3.36302918302444   -1.73191215687671
H        23.02134519705093    1.93596341767396   -2.23068632733775
H        24.24962434524340    1.77130063082615   -0.97148280752090
C        23.20226838037997    3.75719707863552    1.09916246777224
C        23.57550709164562    5.08561274952515    0.93974415546368
H        23.28421580812538    5.63361883431080    0.05559687709617
C        24.32328940983049    5.71380577771849    1.92061258084387
H        24.61009545753810    6.74771032966024    1.79627344180924
C        24.70758316205425    5.02176515895838    3.05748316754205
H        25.29257473070533    5.51788205964201    3.81733018607225
C        24.34262381975990    3.69444015670382    3.21954813517841
H        24.64425767517428    3.15363558595867    4.10401617865793
C        23.59024122852599    3.06754903827127    2.24470289528174
H        23.28743831764247    2.02556722261388    2.35564391119517

