31
CSD_code = BENLAH | q = 0 | S = 0 | Stoichiometry = C6H16N4O4Zn | MND = 6
Zn        0.77425633605638    2.43010052355158   -2.31368065151739
N         0.46382004326648    4.82094888306803   -1.71513121547529
O        -0.48567706712604    4.08743064670159   -2.02002750321945
O         1.58362452817478    4.30570758063589   -1.79171969202317
N         1.90147586053463    0.81796234326633   -0.79825583105805
O         2.28357505704222    1.01123113120345   -1.95973885313918
O         0.88375857178333    1.43094229777502   -0.46102861122433
N         1.20791975088628    2.67947931151635   -4.49980796888327
C         0.78199331132085    3.98297275302690   -5.00097236684881
H         0.94686991708544    4.06360092568975   -6.08264646692226
H        -0.27172644335251    4.14782685172043   -4.78923303313774
H         1.35178424140708    4.76413519886670   -4.50188497607288
C         2.64069219641660    2.52647711516002   -4.74403968837127
H         2.98609244581811    1.58380215586844   -4.32649835347279
H         2.86611558732464    2.55810743250278   -5.81668886691771
H         3.17416225121786    3.33100277796308   -4.24229383759925
C         0.46151805995841    1.60470632167939   -5.15283856745509
H         0.34854440083757    1.80457352187642   -6.22833780207743
H         1.03197141775038    0.68154875894733   -5.03756236443154
C        -0.92044569969179    1.42282992012038   -4.52778959138788
H        -1.47732018243195    2.35773732692763   -4.61038909082274
H        -1.46886699234561    0.64668864850043   -5.08161289793057
N        -0.82686653203333    1.08127065645132   -3.10919327120223
C        -2.09273983311131    1.36057012631951   -2.43420579918943
H        -2.32273144374083    2.42056543033105   -2.50872989990453
H        -2.91161764009318    0.77450850760068   -2.86830956214553
H        -1.99465466995297    1.11179918832783   -1.37955546168423
C        -0.50378275842814   -0.33199352226418   -2.93605418608943
H        -1.26693209012509   -0.97122189279949   -3.39764597231037
H         0.46412122499744   -0.55975049067181   -3.37591979837916
H        -0.45213384944544   -0.56136042986310   -1.87370781910659

