62
CSD_code = BENQOB | q = 0 | S = 0 | Stoichiometry = C31H24Cl2N2P2Pt | MND = 4
Pt       -1.82460853151655    1.54119746399091   -0.78951528095658
Cl        0.03991289906681    2.47180079585529   -1.68053993877787
Cl       -3.09822571015211    3.26910226064732   -1.52027863504640
P        -0.86068206692082   -0.37846202846367   -0.00137759129414
P        -3.48830783011450    0.35028469061723    0.24686319506547
N        -2.36242076937222   -0.89419577840801    0.69370527186919
N        -3.08790219381348   -3.10914344669875   -2.18043447946005
C        -2.74507452558885   -2.14913394048974    1.20845559110870
C        -3.01882091809151   -3.24323221858345    0.37291665241874
C        -3.38486577462624   -4.47286735375638    0.92570031277239
H        -3.58261013032132   -5.30273085969816    0.26364093877049
C        -3.50464045712171   -4.61448541139626    2.29310650650816
H        -3.78707500656945   -5.56703662848948    2.71390690618662
C        -3.27583853287261   -3.52503490508421    3.12080515312700
H        -3.38655697776036   -3.62422928030730    4.18998204271077
C        -2.90023477062070   -2.30741266120297    2.58340344582513
H        -2.71982954437869   -1.45777459298228    3.22484406290395
C        -3.01312617398381   -3.13601478612692   -1.03661625739957
C         0.40841904245519   -0.53768003217483    1.28486227525545
C         0.41277764765828   -1.48078889424322    2.30657343475577
H        -0.39652808500059   -2.19069069741335    2.39993739791438
C         1.45973238804314   -1.50230715364503    3.21169255245995
H         1.46320175253209   -2.23326541489712    4.00740513267341
C         2.50042635479214   -0.59455160681990    3.09883695986695
H         3.31317741686384   -0.61921626241736    3.80947268887275
C         2.49798353709220    0.34535135819563    2.07984641719637
H         3.30702536849341    1.05492102507537    1.99511809716811
C         1.45326819423115    0.37817523304716    1.17526476534597
H         1.42414110084430    1.11200231818670    0.37948356627112
C        -0.40571923849093   -1.62878245247569   -1.23068128844170
C        -0.65989036275706   -1.30445140923418   -2.55915934231487
H        -1.06200182099815   -0.32174145883228   -2.79210039438197
C        -0.39813559520994   -2.22596293028069   -3.55396323842659
H        -0.59801367318588   -1.98045262540617   -4.58540524370437
C         0.11834955122850   -3.46844245210330   -3.22171999214548
H         0.31821409826345   -4.19304762613505   -3.99684428529957
C         0.38416826468566   -3.78724484904334   -1.89957606777534
H         0.79202619540995   -4.75544141738010   -1.64773540867394
C         0.12720172929902   -2.86886363778283   -0.89793782501579
H         0.34045250553890   -3.11012312649580    0.13481331381450
C        -4.75652890569710   -0.55035042524785   -0.67777305336006
C        -4.79373123543496   -0.34307007274053   -2.05224904677568
H        -4.13937768348272    0.40460044455065   -2.48646481190628
C        -5.65958484701126   -1.08170835242972   -2.83658562427784
H        -5.69021842423815   -0.92446977211686   -3.90356629794391
C        -6.48160310165394   -2.02973806771348   -2.24935359194381
H        -7.15306296061818   -2.61382772660154   -2.86070372357383
C        -6.44817154982065   -2.23481993436107   -0.87871567025799
H        -7.09197440000964   -2.97485729030501   -0.42577749756689
C        -5.58728562183887   -1.49790733646698   -0.08649332879690
H        -5.55818259633287   -1.65422116418282    0.98427298762318
C        -4.23574043973463    0.82660807609426    1.82562575011974
C        -3.37394513337227    1.12187270702610    2.88024081064363
H        -2.30593370108226    0.99820400835079    2.73911109525870
C        -3.88072419263537    1.57958695722285    4.08071206914806
H        -3.21329936037893    1.80220030308360    4.90025842977269
C        -5.24708947508230    1.76980382372935    4.22561475501071
H        -5.64338745316908    2.13295304538474    5.16206154939139
C        -6.10186407346553    1.51638083949621    3.16540045633899
H        -7.16245454182239    1.68841411772177    3.27367681440915
C        -5.60084507573126    1.05288401567205    1.96142861442020
H        -6.26146458439079    0.87273459667685    1.12512790251562

