47
CSD_code = BENQIW | q = -1 | S = 0 | Stoichiometry = C25H12O8PW(1-) | MND = 6
C         1.39454081417600   17.80385373374847   -0.17358189926753
C         1.34182480424787   17.67609379797469    2.63386448455854
C         3.75229404798194   18.48695856461550    1.18016819471890
C         1.39677428647462   15.27865004343883    1.23252251120081
C         3.69351890627580   16.06853969921950   -0.15455402770942
C         2.78139853473169   14.67373352037480    5.05251286685300
C         2.86031203239031   13.28992613807183    5.30474107668502
H         2.74991533223835   12.62267359203265    4.46345745539854
C         3.07381754953732   12.82648988706810    6.56894532301622
H         3.12621420899648   11.76361589422065    6.76277092850785
C         3.26163573815377   13.72183650297376    7.64290565055727
C         3.53128697564406   13.26324897061974    8.94818113692629
H         3.56329273783441   12.19584609489897    9.12246300257164
C         3.75994947845499   14.14045511979507    9.97081725971317
H         3.96801090177775   13.77911408990129   10.96866718762861
C         3.74334865194118   15.52077311996676    9.72264539014453
H         3.95257768107411   16.20788405008228   10.53100727871607
C         3.47241768353677   15.99820796880797    8.47089674382735
H         3.47514911211317   17.06217136882860    8.28672318206391
C         3.19949385573648   15.12050735263249    7.39849591466854
C         2.91155526920375   15.58533721454807    6.08869245037069
C         2.79228105299608   17.02229129053918    5.77522550108109
C         1.85251778595166   17.86638134154694    6.42211407345335
C         0.89599395879649   17.36997657339971    7.33451251990747
H         0.87360680280440   16.31030656881924    7.54088130274207
C        -0.00219792921268   18.20491959353996    7.93749313745293
H        -0.73169287869619   17.80730316613739    8.62960403387620
C         0.00575311495522   19.57996670532509    7.66006141821059
H        -0.70775267522559   20.22773594537242    8.15082391023799
C         0.89906572465679   20.08776741880679    6.75973840359306
H         0.89857000812063   21.14252239735722    6.51936798017404
C         1.83001347099960   19.25228519781588    6.10949759375168
C         2.72781811351816   19.75624761509116    5.14621043600749
H         2.71456558415779   20.81410524823978    4.92277924708408
C         3.57532776209918   18.91985413162213    4.47973035010559
H         4.25459383731497   19.28801630794634    3.72609543915099
C         3.59906228307223   17.54374129227175    4.77754508470744
O         0.74157471826993   18.31524717431650   -0.97527337534051
O         0.59950820144533   18.03641939302973    3.43000064761215
O         4.50630004275973   19.35039422509285    1.09864353528895
O         0.80923747280153   14.29717008426341    1.26107638000915
O         4.38259341917092   15.54748490194102   -0.90610734102745
O         4.86198021824993   14.72553140751649    2.70679437214854
O         2.52895943423629   15.09980399922100    3.79644682648637
O         4.45642143030041   16.73630057966481    4.10831775749644
P         3.83181159463077   15.75286691332766    2.89555636127169
W         2.51265884935783   16.93164380380030    1.19942229329765

