35
CSD_code = BENQUI | q = 0 | S = 0 | Stoichiometry = C17H8ClO7PW | MND = 6
C         2.34795361876698   17.72274362915531    5.38857168618129
C         1.70616524739916   17.15585787166742    2.63303228824468
C         3.93168004701426   18.67262950763239    1.84042226026047
C         4.54020717984627   19.22185755081321    4.55520972460832
C         1.94783829948488   19.81643542098126    3.52539179499428
C         3.10820264727095   14.60529716839021    5.10200306012332
C         1.73052823015992   14.58063916079562    4.97320055371245
H         1.29113801005170   14.71095634591558    3.99644063916953
C         0.94459486999989   14.37423203584738    6.09400024501331
H        -0.12969349849374   14.36001106349697    5.99748562394891
C         1.53916798989757   14.20001876946036    7.33268827793500
H         0.92681843967256   14.05413486990892    8.20915430478821
C         2.91635904331164   14.21319992885798    7.45275920200361
H         3.37952351661470   14.08584254719005    8.41950287259115
C         3.72625169433987   14.41963931839641    6.33925045383029
C         5.19516767723234   14.40835005304276    6.44575048845856
C         5.84204686138002   13.42157799577962    7.18675127851400
H         5.24713414839391   12.66554485914261    7.67667178675152
C         7.22054231745398   13.38873189414618    7.27738686060269
H         7.70192632990565   12.61118015981002    7.85044036139957
C         7.98273449939322   14.34730676894637    6.63003840154944
H         9.05943306849541   14.32273553142762    6.69340494670884
C         7.36141556167534   15.34071826425114    5.89464613840664
H         7.93047382105450   16.10346674656849    5.38600676446782
C         5.97953644576098   15.37062083812999    5.80838275733777
Cl        5.83869965848264   15.77128546350128    2.41206619551558
O         1.96678802290386   17.46769350611460    6.43380729877945
O         0.91644876378190   16.56304076577383    2.06099563977134
O         4.42353236053834   18.92785417355327    0.84543754067185
O         5.37260677043654   19.77059936100813    5.10447205567131
O         1.28050922534958   20.74082019499966    3.49230121930925
O         3.90016677169125   14.77897377507590    3.96722531635221
O         5.38422323287985   16.43806294538992    5.13863281615502
P         4.51697830367020   16.26412658547396    3.79125413028405
W         3.10350082418463   18.20381492935634    3.60241501588912

