41
CSD_code = BENSUI | q = 1 | S = 0 | Stoichiometry = C8H24N5NiO3(1+) | MND = 6
Ni        1.94984950539859    2.77607696632232    2.51559287872611
N         5.06379841452307    2.50629008129178    0.59772887512170
C         4.63661133550607    3.68428193749890    1.33398805085225
H         5.05672592050905    4.57065620419521    0.85345493583898
H         3.53632693150358    3.77690005467345    1.33102413873379
H         4.99509818936850    3.65576735327753    2.37061710400022
C         6.40164119098127    2.08494535513793    0.96673270502404
H         6.74135892600800    1.31513428631698    0.27796874508743
H         7.06594219781444    2.94239879970119    0.88136907914293
H         6.45805670789560    1.69397007161330    1.99058746406542
C         4.13094131765524    1.46159632857221    0.38660346639347
H         4.64225857749744    0.66607402630606   -0.16587244240125
C         2.91057572961753    1.94762341203523   -0.44026575461542
H         3.17688910364163    2.90447272688854   -0.89103245014959
H         2.72468606780265    1.22745842847173   -1.24300850730940
N         1.71503279856987    2.11598966818667    0.39744240302718
H         1.00304193851069    2.59116744393883   -0.15283523212247
H         1.34967278180098    1.18219971688500    0.59927806823214
N         3.33684439177359    1.53139028275822    2.66061573077899
O         3.06537351297624    0.85424927424406    3.63329674172352
O         3.67827344387924    0.75010659126647    1.56431383576798
O         2.78456111831147    3.86783255619223    4.36467216384805
H         2.84504371936588    3.09518985337539    4.94273828665752
H         3.66662928635997    4.24675842144237    4.31906264166710
N         0.24819325928819    1.78933674273678    3.89236682312422
C        -0.13217018867690    0.56907699116064    3.17258633480740
H        -0.98148226171738    0.06925591664963    3.65417397002178
H        -0.41219412277710    0.81489986353138    2.14819912945902
H         0.70945494148531   -0.12042487632237    3.16369504200524
C         0.50947406818833    1.43744170225240    5.28881517880240
H         0.77060457500118    2.33029597929374    5.85518551546932
H        -0.36349327788039    0.96763965176708    5.75527704467702
H         1.34160089517467    0.73835029442779    5.32555485824601
C        -0.87885384933559    2.75860726811061    3.81537092848877
H        -1.85372708026900    2.26031827258071    3.85471386842773
H        -0.79789955284904    3.42715448616441    4.68092536753492
C        -0.71092509882521    3.54984650295080    2.57175332917809
H        -1.41654708689181    3.52395235078493    1.75789779820723
N         0.49276393522541    4.09749866125456    2.40436233652343
H         0.62410408639424    4.74159809807112    1.62773675176138
H         0.97466365121184    4.37752225399928    3.27171279518173

