149
CSD_code = BENVOG | q = 0 | S = 0 | Stoichiometry = C76H52N4NiO16 | MND = 4
Ni       10.42845158828501   10.42845128569003    4.52209987709753
N        10.89661083701756    8.56655154619066    4.70759156564458
C        10.01462230912756    7.53186065967776    4.82756028546798
C        10.65044091263382    6.41867090397355    5.49070168585996
C        11.99192081834697    6.80389619602063    5.69981079361462
C        12.12544073571703    8.11484128295355    5.10928700057183
C         8.73257806157518    7.53541509265881    4.28277527697664
C        10.17891224650593    5.21095164931935    5.98760485993200
H         9.15057534431237    4.90659793476148    5.88318775351226
C        11.05523458827929    4.38297487853278    6.67112921651660
C        12.39815204249274    4.75823979094293    6.85998248186091
C        12.86235926526746    5.98051913019611    6.40078213305123
H        13.88200729069013    6.26163731306702    6.60686935960554
C        10.48813638326024    3.13925926615356    7.25650321042159
C        10.47635919776729    1.73678739502055    9.12874066281447
H        10.89425643765757    1.74431326342128   10.13222656508976
H        10.79069668596037    0.84243358117012    8.58649602932059
H         9.38511399564261    1.75910945357963    9.16581238317223
C        13.38952148105784    3.86135922534575    7.51248994737235
C        14.18395586642811    1.66531184983929    7.63672517018375
H        15.20953683305051    2.01664884801206    7.50486011318527
H        14.02640555778490    0.73039924296626    7.10500011904266
H        13.99134789225678    1.53840175108840    8.70414169976456
C         8.01651314267978    6.25581636980294    4.12004370347777
C         8.51444004063540    5.28391004958716    3.25789704387923
H         9.41997912090827    5.48122449294152    2.70339735847797
C         7.84846211127571    4.08153481986158    3.10673988279014
H         8.23726680546432    3.33415362635913    2.43212149505721
C         6.68842708404752    3.83448361719930    3.82127624424774
H         6.17360636501204    2.89301146821816    3.70641382969378
C         6.19176060180062    4.79572397188276    4.68632959856820
H         5.29025663975434    4.60377652873412    5.24901789643498
C         6.84854017408391    6.00340285535071    4.83429106461134
H         6.46665656344251    6.75483646163866    5.51007749503760
O         9.64661507238614    2.46021424094280    6.72589571632016
O        10.97050250040719    2.90028985208887    8.48289574288680
O        14.24389026880707    4.22823852842408    8.27708154110350
O        13.26946707699848    2.59852715084331    7.08171854178902
C        13.32148660451575    8.73257642685187    4.76142425833154
C        13.32503851492768   10.01462177296115    4.21664291560285
N        12.29034697588020   10.89661014165285    4.33661093160341
N         9.96029156106137   12.29034521884676    4.70758897978458
C        10.84227976418417   13.32503656685290    4.82755943533482
C        10.20644892582846   14.43823567697937    5.49065925258084
C         8.86498658824856   14.05299019650575    5.69983028640479
C         8.73146192588692   12.74205448400682    5.10928819093728
C         7.53541505926671   12.12432356692065    4.76142149629777
C         7.53186276186060   10.84227956172653    4.21663726154995
N         8.56655374320463    9.96029140378005    4.33660833373600
C         8.11484450406538    8.73146122386608    3.93491172707330
C         6.80390419007636    8.86498341561560    3.34437800554394
C         6.41866973862403   10.20645604019675    3.55351119237089
C         5.21094186963817   10.67798318490983    3.05662826053482
H         4.90659843488162   11.70632432863265    3.16102548631634
C         4.38299073708940    9.80167835168422    2.37305924638521
C         4.75825330049057    8.45876108829508    2.18419073728439
C         5.98053391545029    7.99455296665450    2.64338976156026
H         6.26164378206986    6.97490018748220    2.43731557100113
C         3.86137013095734    7.46737294551094    1.53170741183448
O         4.22823841499641    6.61303519989128    0.76708762605748
O         2.59854045797017    7.58742145641431    1.96249567470570
C         1.66532218722532    6.67293873455788    1.40748014701062
H         2.01666092468839    5.64735749512002    1.53933287256134
H         0.73041139243582    6.83048116726471    1.93921016904557
H         1.53840549192005    6.86555493745279    0.34006558193127
C         3.13932664190546   10.36876206336342    1.78764127850389
O         2.46013045211191   11.21020667539595    2.31835303039328
O         2.90032345179297    9.88644882824476    0.56126445523399
C         1.73677325660120   10.38053164899732   -0.08453975129597
H         1.74428831385089    9.96265027098288   -1.08803080590041
H         0.84244218571083   10.06615200405954    0.45771204157868
H         1.75905142168570   11.47177176799681   -0.12159840439697
C         6.25581504497675   12.84038771853219    4.92415129733912
C         5.28391123062837   12.34245876932278    5.78629971623303
H         5.48122981473432   11.43692156471087    6.34080044578205
C         4.08153493273592   13.00843381240979    5.93745759834038
H         3.33415677426011   12.61962877085698    6.61207849285948
C         3.83448027638350   14.16846762263522    5.22292057230079
H         2.89300703690401   14.68328548589198    5.33778298449459
C         4.79571820044234   14.66513655810849    4.35786617801829
H         4.60376782671080   15.56663939330180    3.79517764842815
C         6.00339834718358   14.00835923435251    4.20990315503877
H         6.75483097027538   14.39024616681405    3.53411783739686
C         7.99456617315303   14.87635376876618    6.40083831874850
C         8.45878118138921   16.09863157533804    6.86004406936864
C         9.80169765233738   16.47388589259415    6.67115191339902
C        10.67797329952778   15.64597686836307    5.98751066073532
H        11.70631852264912   15.95030844529550    5.88313613673723
C        10.36876113254628   17.71746554106838    7.25664419849206
O        11.21008341936394   18.39690150195008    6.72576976001948
O         9.88653469925492   17.95651395777915    8.48299973050520
C        10.38052599103577   19.12013448448204    9.12874682916393
H         9.96266632626819   19.11263158384492   10.13224551664011
H        10.06608367919551   20.01443336766331    8.58648555993807
H        11.47175898759462   19.09791900596019    9.16578646798176
C         7.46737959852234   16.99552220139911    7.51250144127466
O         6.61304493166715   16.62866334805361    8.27712524906896
O         7.58742678970679   18.25834782421881    7.08169559070933
C         6.67294591822353   19.19157639259302    7.63670410530924
H         5.64736376636044   18.84023709064830    7.50485741309342
H         6.83048768281989   20.12648244304163    7.10496372931133
H         6.86556520052633   19.31850582411623    8.70411750923337
H         6.97490930973672   14.59525092791149    6.60690428057040
C        12.12432487319071   13.32148638797178    4.28277880600611
C        12.74205722750196   12.12543963704876    3.93491337825290
C        14.05299768503033   11.99191757763583    3.34438121595519
C        14.43823442503177   10.65044815577908    3.55352822104148
C        15.64596778719560   10.17892307544076    3.05665760938655
H        15.95031025358164    9.15058234082317    3.16105262381953
C        16.47390248842476   11.05521683315728    2.37306181154992
C        16.09864469108510   12.39813305255621    2.18418382025071
C        14.87636750394091   12.86234630425282    2.64338993578712
H        14.59525599697020   13.88199826511010    2.43731082374802
C        16.99553125216913   13.38951645676356    1.53170079557646
O        16.62865948152347   14.24388130116710    0.76710569046645
O        18.25836080146970   13.26946179916078    1.96248487296263
C        19.19158554203905   14.18394679457564    1.40748060926465
H        18.84024737171288   15.20952896130149    1.53933517948732
H        20.12649380491191   14.02640016038406    1.93921610535914
H        19.31850803972011   13.99133106199838    0.34006605741722
C        17.71753516245003   10.48813941058949    1.78761561166015
O        18.39682254782875    9.64674527440415    2.31838942255480
O        17.95654643689149   10.97041224036755    0.56124102751283
C        19.12011926847048   10.47635917483717   -0.08454563883407
H        19.11260417726170   10.89423024256118   -1.08804099307273
H        20.01444095054208   10.79076284665118    0.45770632083072
H        19.09786140224695    9.38512091135643   -0.12159356961364
C        12.84038646602951   14.60108849562418    4.12004872029239
C        12.34245829350118   15.57299371265185    3.25790110890508
H        11.43692245300639   15.37567617915378    2.70339811237492
C        13.00843394347008   16.77536998964636    3.10674458859121
H        12.61963089205615   17.52274854789340    2.43212350848807
C        14.16846733075474   17.02242340341729    3.82128308558160
H        14.68328490500458   17.96389666029896    3.70642282383166
C        14.66513512248414   16.06118442246134    4.68633668322642
H        15.56663529304071   16.25313454558052    5.24902879712296
C        14.00835698929928   14.85350468764241    4.83429843717258
H        14.39024147147271   14.10207214262069    5.51008475484323
C        14.60108788616014    8.01651509248092    4.92415717685933
C        15.57299486227602    8.51444271325177    5.78630301091644
H        15.37568073502638    9.41998092598387    6.34080389342392
C        16.77537067039820    7.84846541712926    5.93745966322299
H        17.52275192658600    8.23726963220589    6.61207773707009
C        17.02242214720923    6.68843078217217    5.22292241291211
H        17.96389485926479    6.17361144739465    5.33778318480125
C        16.06118147634302    6.19176396958824    4.35786984365175
H        16.25312949329426    5.29026220999066    3.79517897394460
C        14.85350223081984    6.84854283222754    4.20990920020422
H        14.10206910430313    6.46666020854025    3.53412213672413

