29
CSD_code = BENYAV | q = 0 | S = 0 | Stoichiometry = C10H12FeN2O4 | MND = 5
Fe        6.64873018926544    8.20203763591361    1.70445178235056
O         7.23160528411275   10.40904957040413   -0.16353312056379
O         3.88606280456450    8.44766612444942    0.86135608666449
O         5.70088197074682    8.80980363750722    4.43096393041780
O         6.52675744118388    5.43041948165996    0.70262278788535
N         8.88273420462631    8.00284410077909    2.37941892388794
N        11.32659133787134    7.78489121390404    3.11752503886149
C         9.75059327856775    7.65016389248747    1.23216137970950
H         9.63207343583359    8.41905880185145    0.46604405601593
H         9.39747008635501    6.70353108503155    0.81817658759953
C        11.22405524379304    7.54248924221782    1.69052141607565
H        11.62818893235907    6.54906537302086    1.48529714989779
H        11.85100239844923    8.27434575048116    1.17719413940274
C         9.37568159428046    9.27605518826691    2.95361901854242
H         8.72855488417687    9.54554888915262    3.79075588230184
H         9.28140481415174   10.05131655630183    2.19055099060309
C        10.84491943093450    9.12160101937846    3.41216117549892
H        11.49355383931542    9.83612111055454    2.90121094775118
H        10.94181139738052    9.28684075923003    4.48709737189344
C         9.03070282455935    6.94766696396365    3.40824323049172
H         8.65442694045606    6.01086723330292    2.99229576206732
H         8.40317525129199    7.21486543612055    4.26089472728676
C        10.51366109783951    6.81527955021555    3.82787028645010
H        10.63639174386362    6.98939795404408    4.89882979941147
H        10.89992235264959    5.81939755724313    3.60159256923041
C         7.04896940016351    9.54643124473821    0.57810664514963
C         4.98114522182400    8.35063437513080    1.19666091179067
C         6.11391049485954    8.56942116952736    3.38264562913500
C         6.61862210452486    6.50578908312081    1.10586489419097

