55
CSD_code = BEPCII | q = 0 | S = 0 | Stoichiometry = C8H24B2F4O12P4Pt | MND = 4
Pt       -0.00023480242901    0.00088614191139   -0.00026210114456
P         1.64061111810739   -0.67369958679124    1.40741234023210
P         0.43140724800445    2.18583354987288    0.40491601670274
F         1.54827077984027    2.03728796680608    3.94253747410970
F        -0.06177543686704    0.94068057251674    2.75594097169131
O         2.17847184868922    0.39879017723918    2.41168223712736
O         1.28997959220554    2.50081882030484    1.67449322723075
O         2.99886136525966   -1.26619928635770    0.80561727680673
O         1.16810032936455    3.06200522338901   -0.71205411810843
O         1.11297730806009   -1.88692149735460    2.29304250530839
O        -0.94126190014535    2.97070900371806    0.59024943184200
C         3.44961086941703   -0.87002408519278   -0.48002614826498
C         2.04811743930696    2.44989988776727   -1.64152684090490
C         1.85289031133573   -2.32453743043334    3.43525529484189
C        -0.94918799326176    4.30116780423679    1.11321325307626
B         1.25809574476307    1.49387119648039    2.74265179178704
H         4.14113180668907   -1.64176429552396   -0.81642687914062
H         3.96862355074561    0.08900271928581   -0.42464990442948
H         2.61055098714673   -0.80383645015311   -1.18169180441090
H         2.12646046554972    3.13144763987576   -2.48786645610628
H         1.64390856492872    1.49075152266777   -1.98417917651255
H         3.03396656037331    2.30350975011551   -1.19560575849731
H         1.18077326386638   -2.95901178778731    4.01056043560566
H         2.16783400438822   -1.46782214316836    4.03263065728586
H         2.72832753554285   -2.89077134230260    3.11726360824390
H        -1.97992688526822    4.51450219265418    1.39125411060593
H        -0.60968558951891    5.00278251900963    0.35124388783795
H        -0.30029678270735    4.36755487436630    1.98759391119444
P        -1.64045399466720    0.67381847098621   -1.40784967385177
P        -0.43165371625739   -2.18561333774231   -0.40459030876206
O        -2.17833447160494   -0.39883030004950   -2.41200951157883
O        -2.99865976239323    1.26710726975487   -0.80671287968537
O        -1.11213773701243    1.88662717255065   -2.29354628251684
O        -1.29031261885662   -2.50079464800031   -1.67406106747585
O        -1.16878986824897   -3.06109537743056    0.71264842408690
O         0.94069022329795   -2.97112632564776   -0.58975116230798
B        -1.25815695535513   -1.49417362797550   -2.74252447028417
C        -3.45108734363707    0.86927917616299    0.47781395412168
C        -1.85148040859335    2.32420293467804   -3.43615853686383
C        -2.04672846317736   -2.44820957091301    1.64358407285524
C         0.94798990735800   -4.30179619272208   -1.11217908852134
F        -1.54826743439256   -2.03791522946434   -3.94228593097846
F         0.06182019542003   -0.94120647659085   -2.75587679822046
H        -4.14429451542541    1.63979627229401    0.81356480552489
H        -3.96861208187846   -0.09046144389189    0.42086696792133
H        -2.61307230712343    0.80379740237482    1.18077764602774
H        -1.17892614384838    2.95830954626475   -4.01133911090799
H        -2.16644605787895    1.46745834393467   -4.03347531741525
H        -2.72686880962562    2.89078682595245   -3.11866249859502
H        -2.12328826259007   -3.12906635255317    2.49063768909095
H        -1.64184655638155   -1.48879199569604    1.98472123193342
H        -3.03352699916619   -2.30214616373139    1.19968293646746
H         1.97865097126500   -4.51576421816339   -1.39004454362272
H         0.60808028033471   -5.00292323519324   -0.34993781211374
H         0.29911162705543   -4.36818257634181   -1.98656197834841

