57
CSD_code = BEPCAC | q = 0 | S = 0 | Stoichiometry = C22H28N2NiO4 | MND = 4
Ni       -2.55350607705824    3.65407860426444    6.45111157918196
O        -0.76661951049564    3.69437291132335    6.83717143212532
O        -6.00669284365346    7.92548526643275    8.21476957532048
N        -2.90977133984877    5.04312213335901    7.81532896827505
C        -0.07108550781572    4.32885172499550    7.70879524266195
C         1.32460647880105    4.08851166084046    7.78845419841875
H         1.74901378144822    3.37049575072351    7.10259414141491
C         2.10707334396261    4.73963045705455    8.70281892175925
H         3.16748155706141    4.53424853925841    8.74193935442379
C         1.55421778294192    5.66913895426341    9.59051006280677
H         2.18604236037924    6.17375516453046   10.30503491247219
C         0.21039762182910    5.92871590923597    9.54096579741500
H        -0.23150703367300    6.64501393580755   10.21983158328465
C        -0.62366692042094    5.27679131783882    8.61634214537859
C        -2.01201854010795    5.57073249107047    8.58014923037944
H        -2.33460037633877    6.33620821914775    9.29151298658279
C        -4.24947984624416    5.58879974786010    7.95919339722693
H        -4.36739028986885    6.06630863148391    8.93844754857472
H        -4.97586040746715    4.78021740034118    7.86233427722454
C        -4.51486559712762    6.63283457982344    6.86907247620064
H        -3.78554854835176    7.44036233509103    6.95735595555072
H        -4.40474972981047    6.16222465357307    5.89065370594565
C        -5.91473244722126    7.21680940929511    6.99711102875822
H        -6.11918624749915    7.89555510340996    6.15385439577135
H        -6.66717184342715    6.41297168426595    6.97480922032693
C        -7.27226569700138    8.48902843040303    8.42819142948721
H        -7.52980903054628    9.20426521697307    7.63642260004287
H        -7.22787684351711    9.00746761597214    9.38381977394256
H        -8.05136118708102    7.71672155207682    8.46738167531117
O        -4.34040903270145    3.61371556294980    6.06511480839619
O         0.89971358524058   -0.61716932707339    4.68695758635287
N        -2.19723126031242    2.26507010469329    5.08685639223177
C        -5.03596134249789    2.97915004718385    5.19356867567530
C        -6.43167546287556    3.21939754281980    5.11399261157745
H        -6.85609005227854    3.93738697966107    5.79987333817812
C        -7.21416056553929    2.56819687421522    4.19970263722571
H        -8.27459146515920    2.77346711494211    4.16068083407665
C        -6.66130211872095    1.63869463808399    3.31200395818610
H        -7.29314307311943    1.13399803841542    2.59754873213921
C        -5.31745685559289    1.37922664725142    3.36145243881031
H        -4.87554620489660    0.66294561943480    2.68257280775597
C        -4.48337430120496    2.03123723476402    4.28599834091824
C        -3.09499844736680    1.73740227149484    4.32209219631921
H        -2.77240696651516    0.97196368344808    3.61069398819216
C        -0.85749616638869    1.71948306836313    4.94288561911012
H        -0.73959379138818    1.24209161977328    3.96357313643021
H        -0.13115236617734    2.52808959343271    5.03981421209351
C        -0.59203518482371    0.67533543849216    6.03288108892637
H        -1.32135244813405   -0.13218784411548    5.94455448281119
H        -0.70209741537312    1.14583996071075    7.01135653851651
C         0.80782696516614    0.09138120898614    5.90469433340580
H         1.01233201875996   -0.58745072904966    6.74786943447746
H         1.56026811072965    0.89521677392950    5.92703220045375
C         2.16525979019207   -1.18073042569435    4.47342281470240
H         2.42280304700241   -1.89607515894177    5.26509524391774
H         2.12082186205683   -1.69904910531772    3.51773104381070
H         2.94438208007110   -0.40844683356755    4.43430288904449

