93
CSD_code = BEPJUD | q = 0 | S = 0 | Stoichiometry = C41H49CoN2 | MND = 8
C         5.89898423298101    5.00354539795473    3.51588372105717
C         5.90963456442676    5.36124121808137    1.29205821177747
H         5.90012929310759    5.93635546911413    0.38970177952871
C         5.99077557320729    4.02971896803167    1.48525196969898
H         6.04743910003561    3.22036556718527    0.78668851061970
C         5.84694420732634    7.35831676034539    2.68655387825840
C         6.99035374860122    7.99536375841902    3.18765071052984
C         6.98388692788699    9.37882504236909    3.28394161722197
H         7.84903576430710    9.89698836526072    3.66371779177590
C         5.88387818318362   10.11490963449681    2.88606430678498
H         5.89683695753534   11.19172413713817    2.96978052548989
C         4.77743925778529    9.47607175694289    2.36654010235682
H         3.93270852586423   10.06231679253316    2.04086067256048
C         4.73725213446960    8.09206070353539    2.25326751160366
C         8.22473779201555    7.19191508494113    3.53056642650126
H         7.89489129613482    6.25137130050998    3.98457713884640
C         9.15004838119380    7.88690687639381    4.52651777470743
H         9.64306550423963    8.74730217003132    4.07934910530258
H         9.92693290038171    7.19495459673265    4.84652596866995
H         8.59366289350990    8.21245487920980    5.40148655586420
C         8.99624796421403    6.87486039781268    2.24405655094329
H         8.37990164926829    6.31928993104196    1.54112538221788
H         9.87795241359496    6.27965234521334    2.47244109053643
H         9.31697594874040    7.79647987459586    1.76147398952920
C         3.51689357995716    7.44159509546781    1.63852885911104
H         3.58360739015598    6.35758492855937    1.77182529315087
C         3.46398465518902    7.74285960528861    0.13663124622123
H         3.36814551988109    8.81273047352260   -0.03289967518597
H         2.60854705284641    7.24459754822056   -0.31417870495836
H         4.36482603128431    7.40235253888279   -0.36866771072559
C         2.22035845085258    7.91669208276412    2.30105846156976
H         2.27965398075663    7.82230230568987    3.38197273035456
H         1.38593779990153    7.31505782568305    1.94672616340513
H         2.01171754847445    8.95509109543832    2.05784788801218
C         6.17865194784073    2.53423284660823    3.40116596262178
C         7.43704748309079    1.93871394512790    3.26449198397213
C         7.61535239291919    0.65715032037283    3.77055122654395
H         8.57790334262442    0.17616548831231    3.68461831692265
C         6.57179023175438   -0.01713328378601    4.37126824765761
H         6.72389154080305   -1.01718487897317    4.75076231037335
C         5.32972474937933    0.58046724191579    4.48284687432146
H         4.52473008926585    0.03226930849038    4.94443103564048
C         5.10949408642788    1.86760566860973    4.01253816257663
C         8.58235826543441    2.62210335502842    2.54754837226795
H         8.27858076466364    3.63035634704850    2.25476529905879
C         8.93071527307136    1.84378437850925    1.27455496668894
H         9.32017888725009    0.85875341180871    1.51884734461493
H         9.68503800584335    2.37890671651011    0.70172158499859
H         8.05108561818689    1.71391597637064    0.64788361529555
C         9.82138247181837    2.76620908396548    3.43264005947586
H         9.61140465591232    3.41960864608452    4.27497564486627
H        10.63411672833433    3.20550977688906    2.85760849872137
H        10.15475899279224    1.80430284175741    3.81310414413030
C         3.76107487469402    2.53858103393952    4.13025105508770
H         3.93842970976607    3.58724978247711    4.40390397722088
C         3.03360684001319    2.49745820142358    2.78240725944949
H         3.59653062101556    3.01546971411330    2.01010617619994
H         2.06155367723230    2.97526008690347    2.87589812581052
H         2.88251120876699    1.46649972042921    2.46553070228290
C         2.86835016282622    1.93302406398152    5.21074403243731
H         2.48745391455514    0.95740073276076    4.91415852191810
H         2.02026165719496    2.59131277774397    5.38298767725936
H         3.40910551975608    1.83270067587125    6.14778836800707
C         4.11457603061026    6.30940970432413    5.16776394092585
H         4.50595092977062    7.27948068718627    5.49605770428050
H         3.76459589675404    6.40907966231839    4.14347153734007
C         2.99510812785265    5.87521612981666    6.01207176789634
C         1.80817908886472    5.41555093959063    5.43447699312834
H         1.73992064073759    5.36564797445753    4.35618543877609
C         0.72791417201624    5.03184095680170    6.20452653946822
H        -0.17877402560774    4.68334976886207    5.72833198828468
C         0.80210486108702    5.09846625648039    7.58527294234156
H        -0.04019002488487    4.80517593086076    8.19510464199160
C         1.97623119646569    5.53236423714571    8.18031110983381
H         2.04596565416136    5.56687080668823    9.26029064012413
C         3.06296218390422    5.91560689099459    7.41664942959495
C         4.37055801525692    6.29409873266781    8.05940934363772
H         4.32323604600136    6.11419117414821    9.13841876460926
H         4.57669455768472    7.35775342513856    7.90456817453516
C         5.47618806092529    5.47019783881282    7.45251205097638
C         6.72845557805790    6.02433921556699    7.14378822331869
H         6.93584479673629    7.05826251247906    7.39147244513612
C         7.72054617050401    5.22375876830969    6.58027937685314
H         8.70083058464272    5.63410081767601    6.37894076627907
C         7.47062634607421    3.87006026879892    6.33578838944567
H         8.25347835689496    3.23888793686680    5.93760966934554
C         6.26350231237585    3.28818393341264    6.72431774443548
H         6.12570753904644    2.22013050426966    6.63060389228759
C         5.26387909512188    4.09188677872238    7.26198770242487
H         4.33410375751894    3.65512946998403    7.60340092788999
N         5.85771865925077    5.94577708934207    2.53442058749368
N         5.98453221205772    3.82521963839295    2.84403558769068
Co        5.71748224357939    5.14991344216247    5.40850628989206

