97
CSD_code = BEPLIS | q = 0 | S = 0 | Stoichiometry = C43H49O3PPd | MND = 4
Pd       -1.00232793312813    3.43374870600004    4.36423075655584
P         0.76281549598524    4.50597203578258    3.25812095320492
O        -4.24150225025038    1.23050741171497    4.71064873575401
O         1.18778219033670    3.32613992998524    7.32310255170157
O         0.44119785163022    1.13576270574520    3.23942711665853
C        -3.08842715770253    3.27448065104113    4.88561162457146
H        -3.32853424555897    3.26315192186450    5.94806335619424
C         2.08335237878855    2.65396582851121    4.78786193254390
C        -3.54323114788161    2.08520049287508    4.17243276232481
C         2.25729747890159    3.60007845932330    3.77382439192272
C        -2.80377019564628    4.49228070341448    4.24022681453052
H        -3.09597427817109    4.61650978119819    3.19365014067402
C        -3.10580623288060    1.92915577790962    2.75769745678509
H        -2.29336236110510    2.57127027773511    2.40002513884835
C         3.53165333475130    3.83457686668767    3.26789154548173
H         3.67075993224667    4.53561618946058    2.45813870180651
C         4.45947985618381    2.26379925550493    4.82110198650620
H         5.31523898905114    1.75179923490217    5.23614682106535
C         0.74447223437125    2.24299534279022    5.28829914405606
C         3.19371265642640    1.99957162148742    5.31004124895180
H         3.05615029402937    1.27438855498571    6.09921411501350
C        -2.26372891594400    6.96058931760422    7.03578989855046
H        -2.01296844754565    6.95852448560249    8.08721814599949
C         1.03655343064273    5.93406633686663    5.55469835550642
H         0.12520805130922    5.37756116978650    5.82608399382711
H         1.90021510035660    5.32210421183860    5.82985348697310
C        -0.01897132482336    1.32726438729936    4.51660952456162
C        -2.34564933487792    5.76796150722357    6.34589598773021
H        -2.14923692797895    4.83447675581181    6.86344918416374
C        -2.67851408618709    5.74748113877006    4.98538563121321
C         0.36382956031197    2.48209821220000    6.62781743702548
C        -0.70840436953943    1.78701947731329    7.18710390131158
H        -0.99766751648026    1.95490264290708    8.21256646855895
C         1.04142963599559    6.17105202587478    4.04417437278194
H         0.15044507397797    6.76354789807283    3.78915963406982
C        -3.37440278258663    0.65424895320049    0.61327632019895
C        -2.89296566643740    6.96946882145345    4.34359816027136
H        -3.13897467631188    6.97652474181238    3.29027536010924
C         0.79274439723219    3.73243361395068    8.60981866676312
H        -0.19632115142312    4.20172900287663    8.59563568321905
H         1.53355540798410    4.46561351045827    8.92538274398839
H         0.78971349453665    2.89640399341507    9.31726912944428
C        -2.49590860080548    8.16356550872312    6.38614476205789
H        -2.43288566304134    9.09497874886135    6.92951508410470
C        -4.10254863327379   -0.36308392224319   -0.00957996655064
H        -4.87929350857822   -0.86982598691129    0.54519892577543
C         1.00213305066109    4.77904210431658    1.43927234184489
H         1.94583566978018    5.29842875184562    1.24307775217685
C         4.62711893385811    3.16976244951779    3.78650274172741
H         5.61300350495481    3.36107588113960    3.38780333391499
C        -2.80096788764608    8.16230042552233    5.03534469842672
H        -2.97377746990733    9.09663476618123    4.52015132190937
C        -3.67914788588351    0.99293841832413    1.99043038645739
H        -4.46865974850495    0.40976804504241    2.45306461295179
C        -1.37690742841524    0.82911512466890    6.44089756029705
H        -2.18441257549357    0.27098049536253    6.88779136897522
C        -2.37549553969392    1.29615516972755   -0.12218073220151
H        -1.79855311233791    2.08426175633206    0.33596884994538
C         2.29166952819116    6.94228627714212    3.63575089320359
H         2.29499018761392    7.13551025733106    2.56076192271351
H         3.17993965745886    6.35861510090791    3.88620185981624
C        -1.04958269152558    0.59419262620706    5.11611478116858
H        -1.58561907131751   -0.16044044471249    4.56216590945177
C         1.01134693757895    3.40962059214691    0.76297161764098
H         1.86676487489424    2.82745255502826    1.11522368373751
H         0.10850628999831    2.86976339508585    1.06705378593414
C        -3.84189268328937   -0.72423416491233   -1.31674928974361
H        -4.41548929902683   -1.51259716871343   -1.78207445523188
C        -0.05076216950491    0.03220526512254    2.50918610004271
H         0.16754390619989   -0.90830736931243    3.02531032121824
H         0.47743218655057    0.05429929182126    1.55688224276049
H        -1.12624395364052    0.10739607097081    2.32664601666445
C        -2.11580957920760    0.93369343667456   -1.42859424738462
H        -1.34030899904122    1.44158565529331   -1.98379564330928
C         2.34017243562094    8.03823896392616    5.89451277497596
H         3.23222436490778    7.47238435189244    6.17419193483565
H         2.37207120521072    8.99583261680553    6.41866445986916
C         2.34339254590769    8.27214180506278    4.38721542566689
H         3.24057937354768    8.82383317791258    4.09686336619987
H         1.47481333963331    8.87656334415769    4.11419050763053
C        -0.16548782896721    5.61851097239877    0.92228513955929
H        -0.15134002370803    6.60727233871394    1.38727886106790
H        -1.10299163697801    5.12918040431514    1.21139421640483
C         1.09502580375306    7.25791588121569    6.30583151145135
H         0.20427507605194    7.84661191469483    6.07620344418369
H         1.10754376790325    7.07499554485100    7.38227034800404
C         1.05548685848418    3.54444683269136   -0.75561451978505
H         1.99600307844514    4.01950566039202   -1.04705605873129
H         1.02859119944352    2.55343118113857   -1.21427963296892
C        -0.11073772877983    4.38867848488752   -1.26245242026938
H        -0.04423401281293    4.50184411624708   -2.34683373711705
H        -1.05379046515736    3.88661568077729   -1.03764234725081
C        -2.84699669773237   -0.07727606123445   -2.03179537316476
H        -2.64242539468761   -0.35865558174817   -3.05422754751495
C        -0.10347754677970    5.76038511229243   -0.59553475046196
H        -0.95232054268483    6.35034485915638   -0.94776935442212
H         0.81043875919844    6.29321533375643   -0.87077417005666

