83
CSD_code = BEPNEP | q = 0 | S = 0 | Stoichiometry = C42H33N4NiPS2 | MND = 4
C         1.11906164643899    0.54482790075394    3.56909151608411
C         2.45592791708925    0.98545917259639    3.18829077294025
C         3.07448086798471    0.41718059236985    2.07240590267875
C         4.33840094518293    0.82623483140430    1.69744387476696
C         5.00197904593880    1.80221119744775    2.42512502847366
C         4.39396211236515    2.36849486500695    3.53349018722566
C         3.12876830409059    1.96494483869258    3.91482919452031
C        -1.12500600099369   -1.73815818196719    2.40727801152449
C        -0.18012311129287   -2.12479807445592    1.32374581065325
C        -0.21217435405924   -1.46884885862447    0.10037744272786
C         0.69086853500647   -1.81015177312709   -0.89049130686096
C         1.62952894857883   -2.80268922111634   -0.66484247114846
C         1.66499634024405   -3.45470872279324    0.55620612718342
C         0.76403359047407   -3.11782031056764    1.55016620602695
C        -2.35445370157201   -2.41312565702233    2.50226487992459
C        -5.56210273950598   -3.35223165392281    3.86589872534258
C        -6.19176472543057   -4.56880597552862    3.60215424645320
C        -7.38755102461418   -4.87886284658460    4.21713969164111
C        -7.97045933464462   -3.98706785271189    5.10332567873074
C        -7.35027492827180   -2.77674615485972    5.35755794805762
C        -6.15560393638279   -2.44965958890781    4.74172961988536
C        -3.35841378242773   -2.20518618941612    3.47612532662434
C        -2.82979654382301    2.96760165792944    5.62004324489615
C        -3.55985617138900    3.88668023085365    6.36900909793275
C        -3.89814279703980    5.10664062798501    5.81370279359900
C        -3.52452476005019    5.40962747542074    4.51285812528829
C        -2.82101141848096    4.48682266545339    3.75680766519857
C        -2.47660192307676    3.26664826973292    4.30967963288519
C        -2.87510308894346   -3.46965887433865    1.68579234985090
C        -3.90482060259222    0.85146572415177    7.11759177712870
C        -3.92837101589070    0.27532675305849    8.38130635908147
C        -5.12978455889789   -0.13998238576278    8.92882376498221
C        -6.30898771258554    0.00613619624964    8.21829947345838
C        -6.28929147901612    0.57466582884522    6.95454913687883
C        -5.09312633418799    0.99151160651547    6.40370088482813
C        -2.28772948297246   -4.12911252973929    0.49209642791604
C        -1.23806186841962    1.68200844886455    7.68854876334202
C        -0.57398906950730    0.56909941393452    8.20144642893337
C         0.30565545956981    0.70671192867675    9.25690000322867
C         0.53787515742936    1.96181608568032    9.79786424901444
C        -0.10254162894224    3.07235224105312    9.27490686845168
C        -0.98918027811232    2.93919364036216    8.21950476677550
H         2.54808705363242   -0.34195257448272    1.51490126667777
H         4.81088128611428    0.38252636025545    0.83308451048508
H         5.99091789139999    2.12017001199594    2.12860714187204
H         4.90848502823895    3.12869908309074    4.10304838909986
H         2.65018771146136    2.40328231302132    4.77806676553016
H        -0.94021478354380   -0.68868776977406   -0.06911864397587
H         0.66442076624874   -1.29574101541807   -1.84005265123327
H         2.33631648100115   -3.06457790706136   -1.43840141770249
H         2.39985911478249   -4.22535494531180    0.73788226670590
H         0.79415585339384   -3.61805804890150    2.50733626655476
H        -5.72696694774042   -5.25148277159406    2.90942847789180
H        -7.86562447059778   -5.82412703165362    4.00693882659693
H        -8.90291808257006   -4.23354265233066    5.58877560525136
H        -7.79748339229353   -2.07099428038316    6.04167636109522
H        -5.69774787147631   -1.49744652089851    4.94578380628180
H        -3.86922365505191    3.63728660207448    7.37503718659700
H        -4.45868243488301    5.82435018835181    6.39498446311171
H        -3.79186909253646    6.36509471779874    4.08613494188944
H        -2.54372037579791    4.71769391797082    2.73894822147412
H        -1.93160719417434    2.52345035997794    3.72959202368017
H        -3.01015318695793    0.15504280700694    8.93857686040365
H        -5.14357382303550   -0.58451293627897    9.91326637438811
H        -7.24264286041901   -0.32553839758823    8.64823683459186
H        -7.20651222804251    0.68776746811930    6.39496457716265
H        -5.06977292438061    1.42575966188492    5.41295619197373
H        -0.74351754275135   -0.39997424083572    7.74204885872328
H         0.81904988564183   -0.15796460478469    9.65129051628080
H         1.23042568861431    2.07514395984991   10.61884347815141
H         0.09418375279623    4.05176225832719    9.68619791160354
H        -1.46943529471314    3.81232296598645    7.80320972903636
H        -2.99096808603034   -4.87482014865806    0.13079576582135
H        -1.34528305638797   -4.61331235001407    0.74193549869395
H        -2.09367510063532   -3.40333789905476   -0.29542930914330
N         0.53976860133929   -0.35924726244721    2.87047581732986
N        -0.70680223049861   -0.77714752484675    3.21573255370522
N        -4.35452368714531   -3.09281875717720    3.20774952186434
N        -4.04228073652141   -3.84853962638616    2.12950195625212
Ni       -1.52554339011529    0.08236441278046    4.73139429794187
P        -2.35631665523196    1.34571379452711    6.29192837361220
S         0.34282582092674    1.23583267624796    4.96797809867263
S        -3.33459632931813   -1.10183163496994    4.76154805791632

