58
CSD_code = BEPRET | q = 0 | S = 0 | Stoichiometry = C30H22ClMnO4 | MND = 5
Mn        5.09661920293067    1.18615269003041    1.89633789723968
Cl        3.71896293755216    2.87922428602232    1.69366641160257
O         6.47232885911827    2.21147100785346    2.49100981974038
C         7.50491454384579    2.69614612275244    1.91159358367302
C         7.69747138726291    2.58025714369650    0.52626174273275
C         6.79768894695423    1.86019103859100   -0.27587293236187
O         5.73425316449642    1.33941705858162    0.20576119716166
C         8.46956594988041    3.42220258813418    2.76237160546432
C         9.80656178927147    3.59322617379471    2.40741248709036
C        10.66430078564503    4.27972608501336    3.24645820843906
C        10.20366094306924    4.80084600110705    4.44539868080388
C         8.87776658808124    4.62720351547017    4.80977982115953
C         8.01705417003327    3.94027387969197    3.97669675596347
C         7.02006805837183    1.70721489633854   -1.72801934866164
C         8.28942979213002    1.75551698540725   -2.30110560595976
C         8.43960528963337    1.60023822211452   -3.66644718533251
C         7.33172846109865    1.39610787606074   -4.47384091091277
C         6.06720094378798    1.33813035810066   -3.90993129807633
C         5.91103466838923    1.48794595146878   -2.54580577921678
O         3.86456670947527   -0.04185528863848    1.37952240594009
C         2.76176619972505   -0.40869290832825    1.91865077613662
C         2.51773840458040   -0.18957562988019    3.28379138209079
C         3.47739828698805    0.42791108594782    4.10097466434570
O         4.59179096070936    0.84416833104324    3.62920780628272
C         1.80577681368406   -1.14705312175196    1.07116050927436
C         2.27150325265533   -1.72732343558470   -0.11007095330494
C         1.41257390092543   -2.42111661917060   -0.93916613127510
C         0.07227790575822   -2.53763170684219   -0.60740234526987
C        -0.40386668532238   -1.94735534138195    0.55247456945131
C         0.45251056821391   -1.25660488845627    1.38907417388619
C         3.25988553490462    0.60041936534035    5.55104593827746
C         3.94870312304891    1.63278528742913    6.18978873030218
C         3.77743897183612    1.85886374408727    7.54110062797738
C         2.92190965654970    1.05262995992309    8.27501471881757
C         2.24324554071133    0.01775472058412    7.65127718208201
C         2.40769199080570   -0.21096944414619    6.29767843352358
H         8.49637982752800    3.12666523973548    0.05747424004599
H        10.18266669016646    3.17277926241371    1.48704558002939
H        11.69992523267499    4.40682474713103    2.96591226109592
H        10.87867969291642    5.33813711956202    5.09497427079737
H         8.51619667861532    5.02956130249554    5.74473269909314
H         6.97869237636767    3.80151744055846    4.24068853158507
H         9.16063154839462    1.89172993556843   -1.67854130042952
H         9.42652887411912    1.63507118311563   -4.10450789426440
H         7.45583591156415    1.27882561739817   -5.54023939733431
H         5.20203339768764    1.17662028156753   -4.53585289665568
H         4.93211875601077    1.45091582414230   -2.08998243142860
H         1.61164182441833   -0.56051247512045    3.72654717269765
H         3.31692157303078   -1.62460624767748   -0.36236902149401
H         1.78625825501387   -2.87016852925401   -1.84762544318387
H        -0.60126408922199   -3.07923696031830   -1.25481338064786
H        -1.45163372983860   -2.02258451088759    0.80362959053264
H         0.06160630790257   -0.77785336517019    2.27286320218013
H         4.60340557554627    2.25549787353088    5.59807447148595
H         4.30872354113909    2.66491617170643    8.02500562103935
H         2.78570508566218    1.22803590717455    9.33192663724758
H         1.58364881954867   -0.61666763556214    8.22504175950624
H         1.89057023395726   -1.03491417252313    5.83006808901372

