56
CSD_code = BEPRUK | q = 0 | S = 0 | Stoichiometry = C25H23BN4OPRh | MND = 4
Rh        9.29232744948633   11.24878023945178    0.30757370027410
P        11.00916737274035   12.18036417660993    1.43457147498072
O         7.49410384157528   13.48719525427014    1.09401792183820
N        10.43050517454837    9.68066676946475   -0.24820447644480
N        10.39865602858269    9.35173451240713   -1.53865837894186
N         7.79374126145413   10.26031545012506   -0.68371319248126
N         8.06066199972068    9.86357599518919   -1.92421769627260
B         9.46721902265574   10.11960203714762   -2.51141703661558
C        11.23764108435480    8.82037295182276    0.37161991673580
C        11.74020340399877    7.91024451635323   -0.55075155640822
C        11.17400278000555    8.29034135415988   -1.75461804497340
C         6.55583306160963    9.87414318418454   -0.38381672215341
C         6.00787059743528    9.20231518643424   -1.47095799513761
C         7.00765123491802    9.22113205049089   -2.42771160797153
C         8.18159168790480   12.62248493644865    0.77614750886461
C        11.48168706820661   11.13371757569620    2.85450529603384
C        10.41543472736233   10.48095893176543    3.47319165881162
C        10.63406847087661    9.66138744696121    4.56352416311959
C        11.92467190317435    9.47532910399711    5.03663327169426
C        12.98890210203241   10.10323961904957    4.41171810546474
C        12.77317001195483   10.93150513570908    3.32221719103158
C        10.71140316352320   13.79085108532029    2.24078130720570
C        10.48743968631589   14.86731972172176    1.38535407720672
C        10.21704618063420   16.12059533875714    1.89695318439100
C        10.15913378764756   16.30751597072589    3.27006588231443
C        10.37183510591223   15.23927856352556    4.12395626508863
C        10.64695906706048   13.98101953990057    3.61444174118913
C        12.58460458592584   12.55760444874588    0.59659889120127
C        13.56694454666104   13.33438854347412    1.20699640941358
C        14.75029431068963   13.59797846562135    0.54277130188853
C        14.95821709902937   13.10036079420443   -0.73461216503344
C        13.97361271594736   12.35010549886836   -1.35512279518789
C        12.78828537854751   12.08191758833457   -0.69312438309190
H         9.70656270193168   11.29948054027115   -2.42788956381508
H         9.55320014631649    9.66283492799260   -3.60160738691041
H        11.42638666940841    8.87927154606303    1.42746024751010
H        12.41388303735316    7.09824052248571   -0.36830032326525
H        11.28530953816530    7.87227053946697   -2.73469746061582
H         6.11633599476848   10.09047969023919    0.57260204034200
H         5.03135712653230    8.77038101979257   -1.55030199744631
H         7.02055386764730    8.82349860203476   -3.42236868237620
H         9.41438343166951   10.62042965265852    3.06618952351117
H         9.80495789587105    9.16018974867786    5.04104980925482
H        12.10095417576785    8.83169052478257    5.88574112510919
H        13.99510438157992    9.94535023244912    4.77192074814046
H        13.61071912581893   11.40569145776762    2.83178836183669
H        10.52364203557716   14.70150624610429    0.31506067596370
H        10.04464966809987   16.95202221968027    1.22956013361158
H         9.94241647799887   17.28579290640123    3.67286191485214
H        10.32105507865240   15.38369361853939    5.19345879760642
H        10.80931501546689   13.14921238805830    4.28558129262975
H        13.39393903839643   13.74219007092526    2.19410336673964
H        15.51209563807434   14.19800693746783    1.01928711576886
H        15.88436210463496   13.30966101917041   -1.24938565005837
H        14.12608583622035   11.97794020629873   -2.35741167752187
H        12.00514510154380   11.51752339568831   -1.18101562893447

