51
CSD_code = BEPSOH | q = 0 | S = 0 | Stoichiometry = C20H26FeIN3 | MND = 8
H        -4.93433612893211    7.60265931847702   12.62755325965096
H        -4.91531806726095    6.07011351535538   12.01328349076833
I        -2.50357357335269    5.14731624037926   13.28785998229780
Fe       -2.63991751999891    6.95026226777187   11.47220949318507
N        -4.71827644021024    7.04900089061973   11.80275359499979
N        -4.23837526936677    5.90611090332088    9.29925622482409
N        -2.43436452193586    4.75290438553752    9.54706676180858
C        -3.12256265109906    5.77723569299644   10.08281375021050
C        -4.21777211305939    4.96131555468362    8.29416549399926
H        -5.00545889110462    4.85383566136605    7.57863295173027
C        -3.09223560106412    4.23654792522155    8.46277742985218
H        -2.71379566008038    3.40532156151537    7.90391677269475
C        -1.20340119301952    4.23378202109804   10.06622955867245
H        -0.78162529876540    4.96980297811834   10.74406688816650
H        -0.50693517703561    4.03541446526692    9.25192383558024
H        -1.37989083451348    3.31028553687076   10.62038477648585
C        -5.18605701936154    6.92274308566613    9.42286623923572
C        -5.41827185363311    7.51482048509926   10.67405260268049
C        -6.31628631176231    8.56905821052776   10.76962726790379
H        -6.49495476240543    9.01862687138622   11.73624597474807
C        -6.98596643797508    9.03886181438942    9.65422735317741
H        -7.67905848232373    9.86038720511218    9.74784238252941
C        -6.76583040417373    8.44540784137083    8.42287610724832
H        -7.28337748960357    8.80370860355404    7.54675647582097
C        -5.86934238722101    7.39977128591845    8.30866320160870
H        -5.67976071380702    6.96619907241269    7.33915549735745
C        -1.41211854353889    8.37108743831884   12.52508666682355
C        -2.40078081862634    9.03797174342881   11.78210769720702
C        -2.23990591278040    8.68083383079388   10.40640029104975
C        -1.08490126565784    7.84799634559547   10.30496820786754
C        -0.58922552576494    7.62852026935497   11.60747564840123
C        -1.13140162915273    8.52967209077006   13.98230695766715
H        -2.03095797613232    8.80984143187128   14.52546880813389
H        -0.38153568108430    9.30737316440123   14.13995842395982
H        -0.75256952107939    7.60388934035140   14.40709367202435
C        -3.39505482747351   10.01040987993831   12.32610994485965
H        -2.93670294345715   10.99574426891323   12.42551316128139
H        -3.74033832315617    9.70708270040281   13.31358113601601
H        -4.25235797027807   10.10455655692139   11.66393061383175
C        -2.94258937638090    9.28736110053492    9.23750019153715
H        -2.37146882601996   10.13491224502088    8.85335567256686
H        -3.93481804846360    9.64119684374843    9.50523936318224
H        -3.04577090563079    8.56249220865380    8.43260165132843
C        -0.48014234966244    7.41271047548298    9.00940668789293
H         0.29204928701517    6.66383945904115    9.16035894379842
H        -0.02926171800927    8.27100147927471    8.50858631783455
H        -1.23644135506377    7.00041118945108    8.34393970203642
C         0.66432842903870    6.92045778246443   12.00617405863734
H         1.38214312791111    7.63914833789157   12.40443447095821
H         1.12470910048441    6.41219359096694   11.16202496553053
H         0.46785837603001    6.18710283237412   12.78676937833291

