70
CSD_code = BEPVUN | q = 0 | S = 0 | Stoichiometry = C34H30ClMnO4 | MND = 5
Mn        5.97809604139817    2.52631145710133   14.64229593461562
Cl        4.69504054023120    2.15721101886916   12.90320035428496
O         4.89455644724559    3.81119757018639   15.33433958870393
C         4.93491709543675    5.08932190805414   15.30320233466193
C         5.89414691860148    5.78032546965926   14.54651998372726
C         6.89986957287620    5.09728995673895   13.84517490472387
O         6.95029235238341    3.81955984357029   13.81171248943840
C         3.90093418109183    5.81085454485562   16.06932811004599
C         2.70795153195680    5.14812318210075   16.36186093707077
C         1.71171533404014    5.77901907864845   17.07599962707469
C         1.87661593535221    7.08479806386799   17.52822329891107
C         3.07059910615963    7.73794149862339   17.24614485112811
C         4.07243206342711    7.11512689262677   16.52687239535084
C         0.78220828683679    7.76837586189139   18.28770464718480
C         7.92614467601454    5.82860499922034   13.07778477465155
C         8.54763879992268    5.17806761622663   12.01231190574937
C         9.51275737801389    5.82006157926967   11.26329166210781
C         9.89287964181342    7.12341760992503   11.56011444300291
C         9.28057995783132    7.76543891220460   12.63251929693446
C         8.31048698452794    7.13311739963914   13.38347668342811
C        10.92785287690665    7.83516580787681   10.74508900109552
O         5.16403570487931    1.24437434145846   15.66967192875006
C         5.13755995026223   -0.03075786586543   15.55736708023331
C         6.07892441472015   -0.71665071842611   14.77442626638770
C         7.10650275409536   -0.02828554060388   14.11124777225926
O         7.20081102233647    1.24756941215603   14.17051436765057
C         4.09044264505816   -0.74571878543701   16.30960174394007
C         4.20773359140046   -2.07584965042137   16.71078848125987
C         3.18314433658841   -2.68345446271088   17.40723372568869
C         2.01623667576930   -1.99198442844766   17.72150552882104
C         1.90550223700086   -0.66450923403393   17.32616260038607
C         2.92780168995107   -0.04689705429637   16.63469598648113
C         0.91533617600758   -2.67672047473788   18.47023284762468
C         8.14158452565837   -0.74007498538462   13.33977759951600
C         8.48311364882103   -2.07193696656527   13.56329490257301
C         9.45885952124079   -2.67849597021286   12.79591500969378
C        10.11705078179711   -1.98250208619246   11.78879695663649
C         9.77892876886420   -0.64964323791477   11.57297383175615
C         8.81067227647723   -0.03487711297869   12.33735879454785
C        11.18064926678547   -2.63694753129391   10.96311945414552
H         5.80563565442364    6.84602154350667   14.43261856953996
H         2.58004852163396    4.13648495621732   16.00554228237856
H         0.79013797498953    5.25632248784546   17.28886205646716
H         3.21926986621140    8.74873115501432   17.59916832816190
H         4.99824471865891    7.63843284669863   16.34226844302306
H         1.15748100769166    8.64348116501347   18.81236221711800
H        -0.00030263688960    8.09183554969887   17.60068839791338
H         0.33121338470300    7.08947774164232   19.00870907446285
H         8.24683797681730    4.16711090088713   11.77947045011793
H         9.97823676023577    5.30415717215879   10.43569657852676
H         9.57463429054925    8.77543665350679   12.88128181570832
H         7.86807707818638    7.64668557518828   14.22348604178130
H        11.64445484797472    8.34093802331436   11.38981537748771
H        11.46155706776797    7.14189007334752   10.10003622377032
H        10.45377726315212    8.59086985744463   10.11833446132561
H         6.01654676356462   -1.78605457378769   14.68877451753758
H         5.10871602469512   -2.63107260580803   16.49952066304041
H         3.28533658659595   -3.71369537092299   17.71784592786764
H         1.00792041378843   -0.11076892549263   17.56136503967550
H         2.84185509995937    0.98232277221513   16.31875526595674
H         0.08692414082864   -1.99786855852953   18.65459342172948
H         0.54640571160345   -3.52966137523486   17.90173216503386
H         1.28105764363595   -3.04960694181673   19.42624946678587
H         8.00381813606504   -2.63303263271264   14.35071927449026
H         9.71626887147366   -3.71152765931770   12.98277435286398
H        10.28172126471713   -0.09465932454627   10.79392184021598
H         8.53904989930124    0.99643509206830   12.16642858314959
H        11.16186862119780   -3.71692446273404   11.08517533280285
H        11.04884548481299   -2.39810704345048    9.90960976513649
H        12.16365585187006   -2.27472201066688   11.26544196368519

