104
CSD_code = BEPYAW | q = 0 | S = 0 | Stoichiometry = C31H62N4O4P2Pt | MND = 4
Pt        9.18522220841489    3.44582381490240    5.81521116087173
P         9.09011707692002    5.53446507061117    4.59105236171606
P         9.39567500290686    2.50766226356877    3.59019009427034
N         8.24694616259583    7.03118509858313    4.57633957552818
N        10.64795693586468    6.13422048077420    4.69941625773680
N         7.81463585002455    2.12043464555320    3.19408125046495
N        10.19364970996430    1.25847095364671    2.72350939029692
O         6.85868676838743    9.48030539543451    4.74735765722741
O        13.41240286390670    6.39199712299033    4.19922703520643
O         5.08040929339134    2.34523567944584    2.52785553934947
O        11.47414646256219   -0.91662321019028    1.46646889589161
C         9.59920046336208    1.63944586800241    6.79416059750250
H         9.00373844752892    1.49860295507449    7.70042833420361
H         9.30328417943359    0.83381137819302    6.10205262702979
C        11.06658958747651    1.39235125491737    7.18182229294192
C        11.19762020456805   -0.03504269503580    7.73647277275568
H        10.86841132517979   -0.76793778607971    7.00213299538472
H        10.58875767280250   -0.15364815640725    8.62977337599850
H        12.23278560237399   -0.25078644790451    7.99572286020793
C        11.53367412304138    2.36633464489224    8.26653734433348
H        12.56237130408570    2.15094245312370    8.55157486780005
H        10.90908361429771    2.27481674723545    9.15164697182377
H        11.48092408659368    3.39220095943369    7.90979596099687
C        11.98727799189283    1.52373435172907    5.96587872683411
H        11.81996648527353    0.69325755724078    5.28433614052025
H        13.03372875683199    1.50966878381404    6.26654148535534
H        11.79052063557500    2.45663038629197    5.43624090112887
C         8.68791495685489    4.32134291380807    7.65478353504997
H         9.25385553192947    3.89830446677226    8.48984027596939
H         8.98315562117448    5.38142848051773    7.58710871825240
C         7.20363220115421    4.28776350035379    8.05695038225413
C         7.02744527911758    5.08402040552995    9.35969654323959
H         7.59920585043207    4.62845888519941   10.16489628620315
H         5.97947251488859    5.10751506972926    9.65378962812934
H         7.37207270140809    6.10915702492385    9.23686180240643
C         6.71676830940952    2.85808816142204    8.30709558250574
H         7.30749999360979    2.38798586661135    9.08927623757070
H         6.79983438683381    2.26049166121685    7.40224613751584
H         5.67500113388107    2.86351221880919    8.62433957503773
C         6.32545427952164    4.92709688551661    6.97784105496861
H         6.47765315335714    6.00357826357906    6.96360238103907
H         5.27087807314816    4.73826859555715    7.17205866628581
H         6.57544850884807    4.52474829206649    5.99606066485749
C         8.85232940494271    5.06577372147871    2.79987319707172
H         7.84521884943772    4.62722841669838    2.74788860509657
C         9.85635772249917    3.94979267504227    2.49566359814907
H        10.83060337275980    4.27897946140803    2.88456964647371
C         9.93281826548014    3.86581265342196    0.96036997417809
H        10.96711258449967    3.96968059977659    0.62623456142340
H         9.56483380961065    2.91540272697643    0.57829733007774
C         9.09167062498512    5.04286737753256    0.44170455285556
H         9.52947268261261    5.49762785047713   -0.44668780357923
H         8.08602738430662    4.70422529148048    0.18475441163432
C         9.02067818553986    6.01766968787653    1.61954516267970
H         8.20663151308689    6.73368576299997    1.51560940042918
H         9.95973878513436    6.56526167124256    1.69498901394940
C         6.88198004415995    7.14205077057751    4.09437423488669
H         6.15444614151241    6.89273677981139    4.87852203447363
H         6.72305549350984    6.48015236629131    3.24491820657441
C         6.65891582499695    8.59744545919582    3.66894476594313
H         7.35249590735775    8.84697936422698    2.85002365905736
H         5.63143760905845    8.75174577232947    3.33501547415219
C         8.15298079038996    9.33616661351511    5.28719099092159
H         8.20767588932767   10.02293461888323    6.13330613052182
H         8.90505356885530    9.62074627869849    4.53495732126968
C         8.40299281333615    7.89475348213127    5.73611629511725
H         9.40982261226030    7.79000369202837    6.14044582805980
H         7.68106390775798    7.64706597618984    6.52558902165794
C        11.17760048396181    7.32933321912880    4.07769231329503
H        11.43231089056311    8.07232773354675    4.84769675841688
H        10.43529980778130    7.75908563930235    3.40715641892004
C        12.46477837985521    6.96584782303969    3.32860807970163
H        12.23420290051802    6.26143691167381    2.51266218477615
H        12.93785889824942    7.85663898255823    2.91078637582622
C        12.90311988005714    5.23560761778425    4.83169389905071
H        13.68653115453165    4.88910650885928    5.50691352477502
H        12.70964464969077    4.45629986785173    4.07653888395027
C        11.61745466592264    5.54397197479388    5.59995133373343
H        11.17706431342105    4.62598911699807    6.02348697317979
H        11.85616120946673    6.24348742986153    6.41332180407104
C         7.31562700345121    1.59785666055120    1.93949298147499
H         7.01982451143594    0.54487671223220    2.05818496541985
H         8.08479666445945    1.66161364240686    1.17291641531538
C         6.07337657499683    2.39731091043756    1.53038052776828
H         6.35497665530683    3.44540551267146    1.33971736897889
H         5.62120631947862    1.97811573770543    0.62944447185828
C         5.56396502918888    2.83330299740436    3.76261110422726
H         4.74449235460282    2.72514637861712    4.47419816535008
H         5.81791350064345    3.90136884900754    3.66456682568990
C         6.79369867115971    2.04999814814780    4.22127992435045
H         7.21230378246935    2.47336695439381    5.15016746634707
H         6.49648344136981    1.00624502669667    4.39647949804983
C        11.58839771788268    1.34976104245039    2.33194819654263
H        12.25843799905398    1.03322978545148    3.14228328505993
H        11.83568923489943    2.37077961084854    2.04918565861067
C        11.79665709531961    0.41393485882377    1.13635332204519
H        11.17071327616713    0.75297261729575    0.29580479045075
H        12.84341664701261    0.40574479703799    0.82809467077043
C        10.14483821346965   -1.01829820854892    1.92412420568568
H         9.99378197098321   -2.06572566448626    2.18985806706452
H         9.44951531165968   -0.74125377772672    1.11637343082171
C         9.90885177665302   -0.10787207866985    3.13118183183211
H         8.87481222338644   -0.18277375033474    3.46942620906690
H        10.56850769267225   -0.43264891957320    3.94722750979050

