153
CSD_code = BEPYEA | q = 0 | S = 0 | Stoichiometry = C50H95ClO4P2Pt | MND = 4
Pt       -1.49841111890421    0.00812649237163    3.95123759230711
Cl       -2.47814333009907    2.02862415953469    4.45966462075957
P        -0.56666156370310   -1.88253616259797    3.07452636680824
P         0.19760061384971    1.13548395357450    2.66205717007473
O        -0.12295935379124   -3.02670756994926    4.10446751094102
O        -1.40296723651521   -2.60899571408436    1.90432598142383
O         0.06079336705497    2.36518032809438    1.65766424268309
O         1.63327350439829    1.50861861409315    3.32387397063223
C        -2.97092443373537   -0.99024730645466    5.05705182383612
H        -3.93157316066553   -0.48454966924605    4.88793210457590
H        -3.07089218047630   -2.01658692730157    4.68509262382898
C        -2.73711095052367   -1.10276695164215    6.56920363105048
C        -3.77652262407133   -2.07361460403424    7.15157731288536
H        -3.66947274970694   -3.06373591185765    6.71211731038048
H        -4.78521990494413   -1.71788401033128    6.95339185168759
H        -3.65020485486555   -2.16116682578647    8.22926298147537
C        -2.89738504858611    0.24802591039160    7.26777884822830
H        -2.20751990507157    0.97822742617654    6.85306971310052
H        -2.71153165445999    0.15161465154047    8.33684863381493
H        -3.90582964680591    0.62987677139338    7.12680961533136
C        -1.33890780621134   -1.66582663784035    6.83857751048140
H        -0.58539708813003   -1.01850701736232    6.38977019545412
H        -1.23958082133571   -2.65332441043054    6.39523359429609
H        -1.14824495945096   -1.73757900623441    7.90828407627320
C         0.93603801693532   -1.45202884776496    2.08791426708911
H         1.74981303990947   -1.30868947075652    2.81149246944928
C         0.65715450520095   -0.12158350113740    1.39454669212304
H        -0.22538915151979   -0.23787695793192    0.75850462115225
C         1.88694967561618    0.07260733754607    0.52089357495238
H         1.70690194062836    0.77072377309539   -0.29392922498565
H         2.70639228504585    0.46147850557653    1.12678901105594
C         2.20766398441808   -1.35014501666179    0.02108233793128
H         1.90696591276164   -1.47323262651857   -1.01929863145112
H         3.27840774522735   -1.54737914186246    0.07956892248880
C         1.41856887694671   -2.32177672615498    0.92727669775687
H         2.03784571013242   -3.15991331756974    1.24706938578169
H         0.55438871577423   -2.72529314307170    0.39880996264472
C         0.76885914248377   -4.13226428375608    3.91211650169720
H         1.58388073251428   -3.83114258136294    3.24640030190924
C         1.34108337245318   -4.50254400727461    5.28798874062684
H         0.48504885336816   -4.74335463720785    5.92758102455652
C         2.21147092380126   -5.75317129905512    5.14809429419661
H         3.05816882307449   -5.54088611359531    4.49332010008248
H         2.60166985460757   -6.03503642809982    6.12667950102684
C         1.41862628165608   -6.91476353416621    4.55834702254510
H         0.58121671082744   -7.16113030386018    5.21460599884760
H         2.05829959232506   -7.79690701846243    4.48687846743748
C         0.88543102713525   -6.54898312412190    3.17429134130878
H         1.73697379841939   -6.32211002008799    2.52195705151446
C         0.01211794306955   -5.30092236666462    3.28906507532844
H        -0.85565314594637   -5.52013589354162    3.91481225154775
H        -0.34961510395592   -4.99721673257863    2.30528850188275
C         2.07054623385412   -3.30769216427552    5.93741860576948
H         1.44879107840656   -2.42653756270437    5.74741963501492
C         2.17018200093556   -3.48280541769049    7.45167340396311
H         2.64085750565151   -2.61058806670219    7.89997614831743
H         2.76692948169404   -4.35589145650552    7.70567171499553
H         1.18190793566856   -3.59755712325664    7.88916536436252
C         3.45834472122389   -3.04947278192887    5.35370993839872
H         3.42985729292158   -2.98639185952368    4.26802220824573
H         4.15457994938685   -3.83506771875741    5.63666271387159
H         3.84672144562192   -2.10768921983551    5.73595424104422
C         0.09483764120377   -7.70059249281578    2.56059916956160
H        -0.26598216880579   -7.43257153197429    1.57029507339142
H        -0.76232803975936   -7.94682015974379    3.18341833662528
H         0.71893232834739   -8.58660548789358    2.47053385828834
C        -2.83713682747895   -2.62286703958882    1.91833061367523
H        -3.18706667022360   -1.79151424971374    2.54057829477722
C        -3.38468157077838   -2.43668692427707    0.50012995025981
H        -3.06395754041724   -3.29800997099352   -0.09905665582843
C        -4.91339948461577   -2.44987667369642    0.58697406063656
H        -5.24822031935350   -1.61515592620301    1.20400347964052
H        -5.33935539428000   -2.33163771065512   -0.40929128718938
C        -5.42138526079240   -3.75307609544091    1.19726585074135
H        -6.51215559834616   -3.73381113553981    1.24206833925745
H        -5.12915058915747   -4.59315516958458    0.56226834582125
C        -4.85182706859672   -3.96039887373303    2.59950738192527
H        -5.18027713412014   -3.13213688902884    3.23644473585564
C        -3.32662415785453   -3.93303753298506    2.52546728946132
H        -2.96859613404987   -4.76690623790855    1.91674376498156
H        -2.89499891984899   -4.03482484267139    3.52380311122555
C        -2.80731249694553   -1.17669897372973   -0.17504312522983
H        -1.72144420178746   -1.32207453024880   -0.20304831989261
C        -3.09672547044113    0.11987160264144    0.57807731601993
H        -2.63397692395659    0.95403724300018    0.05522450272531
H        -2.69271832466651    0.10298820996187    1.59683400553280
H        -4.16518935055369    0.30981887524651    0.63664729466440
C        -3.28363362177619   -1.04937200175973   -1.62254006235584
H        -3.15537979540049   -1.98771608000799   -2.15825076849016
H        -2.70893141673069   -0.28180029965031   -2.13638252036099
H        -4.33188267621013   -0.76527658518892   -1.66485853507214
C        -5.34061674826301   -5.27020239081700    3.21027268854728
H        -4.94012257039808   -5.39632163098135    4.21343297291489
H        -5.02303870152197   -6.11620721274002    2.60395362807971
H        -6.42619051367589   -5.28059052882662    3.27130939512649
C        -0.56668215227786    3.60315416230875    2.04239555143755
H        -0.68350690197318    3.63414421024665    3.13019546568922
C         0.30908610157416    4.76932607583671    1.57040363521303
H         0.41644194075577    4.65917085610338    0.48461087857426
C        -0.42431278038453    6.08175466303133    1.85634245300299
H        -0.58049534520887    6.18378852041770    2.93085903164618
H         0.18409000019838    6.92155832625619    1.51692426119480
C        -1.78315344677532    6.11927980798977    1.16594184035791
H        -1.65117565033712    6.03860342043470    0.08406003901681
H        -2.27337378394486    7.07329881051448    1.37245475277694
C        -2.65876739747780    4.96891409406345    1.65775085864521
H        -2.79937246671017    5.06829976169178    2.73885309038806
C        -1.94615759449554    3.64572588493482    1.39358618557158
H        -2.53694703484217    2.82285328202516    1.79848594430569
H        -1.82862307342038    3.49287273345644    0.31767248286140
C         1.72600637875850    4.70964541524133    2.17578308763543
H         2.04668470385763    3.66487125120972    2.11795941165993
C         1.77556208063247    5.13455608881915    3.64152073428450
H         1.56992789634501    6.19670534643035    3.75042456455778
H         2.76859997994840    4.94406081970598    4.04454488758601
H         1.05400597984078    4.57582488506508    4.23208697722271
C         2.71052700389152    5.54601865509988    1.35942059707370
H         2.71147081188696    5.23446308767585    0.31725007448697
H         3.71874544628658    5.42725838903782    1.75091595301915
H         2.45457694546882    6.60237772373925    1.40264702288793
C        -4.02784857318913    4.98259067468936    0.98510985248926
H        -4.54271596657360    5.91933730098528    1.18615294759720
H        -4.63941664963878    4.16611755761267    1.36026129706301
H        -3.92554883933197    4.87139413090114   -0.09283562910290
C         2.12452205237825    1.06650979195760    4.58462544608788
H         2.24000592194773   -0.02602734169210    4.56835278367112
C         3.49658504308959    1.72330273028001    4.80460254991384
H         3.31441966781978    2.79994364059260    4.88911959026886
C         4.05642791970754    1.22584067772133    6.13759494771555
H         4.17994269701733    0.14166182963382    6.10391401329305
H         5.03497252563211    1.67205500905463    6.31761118049925
C         3.11567308757345    1.58422075640143    7.28354389874781
H         3.02740120012651    2.67073764845019    7.35464898737027
H         3.53095279946611    1.22220079082198    8.22687673988358
C         1.72664118220535    0.98120988069167    7.06977226065999
H         1.81925955326176   -0.11136179201685    7.05474109052967
C         1.17651570010273    1.43883012213271    5.72013893882205
H         0.19480120201696    0.97732155012115    5.53230639100973
H         1.03591739323983    2.52188460425434    5.72140923707528
C         4.44421315105455    1.53251792392965    3.60338684069822
H         3.87398390878651    1.82575962002157    2.71557021498883
C         4.91507852400771    0.09239674919675    3.41325152379484
H         4.07278695994436   -0.58976771751333    3.33357397369801
H         5.54414796774554   -0.22639222925368    4.24081243854448
H         5.49904084775787    0.01429845010965    2.49806930443774
C         5.65144284061469    2.46438329342289    3.70049789951095
H         6.29602357773885    2.18634269971022    4.53100041241013
H         5.33366628230590    3.49513249761105    3.83979577595303
H         6.23919070487703    2.41021451301757    2.78669765936488
C         0.78486083272104    1.37557449695509    8.20276715456553
H         1.17808325367854    1.03721971994225    9.15895645065277
H        -0.19509234325031    0.93278298903053    8.05577857616219
H         0.67003885335650    2.45649167366949    8.24165376837852

