66
CSD_code = BEQBAA | q = 0 | S = 0 | Stoichiometry = C29H28Cl2O4P2Pt | MND = 4
Pt        0.27861405187384    2.93201403165736    3.34096899393202
P         2.07722659760559    2.33305717630299    4.65719873791099
P        -1.00504004423734    2.07708597191506    5.03028164191343
Cl       -1.67268116267126    3.32018766751367    2.20219716600169
Cl        1.43665642162994    4.11479096875872    1.74902899159127
O         2.53972725208556    0.82723813304417    4.29821921392594
O         3.47145914516952    2.96454417554342    5.10272748537289
O        -1.62307893960204    3.27822183540744    5.86825451246262
O        -2.28831683730366    1.12154454296228    4.99674515540156
C         1.79892418514814    0.03852528644796    3.42735230411642
C         1.51129278829462    0.46952594238224    2.13814188778968
H         1.91546273273336    1.40495162308722    1.77346676470176
C         0.78103476206757   -0.35487918519772    1.29631209086208
H         0.55753505083641   -0.01902058040235    0.29607646857753
C         0.35152658493784   -1.59660751900065    1.73094933464970
H        -0.21002619221194   -2.23742693410571    1.06968988759274
C         0.65949141487419   -2.02603500239491    3.01016773299297
H         0.33732049382909   -2.99830269809276    3.34963989197129
C         1.37756045853055   -1.20838875099028    3.86505365638655
H         1.63139216052400   -1.53592457273809    4.86253143734255
C         4.60146993595694    3.12196260786970    4.31063523870377
C         4.53721084833123    3.22892868618008    2.93349647625269
H         3.57337561371837    3.23123771222825    2.44150129124766
C         5.70804937068598    3.38674078144921    2.21155809599725
H         5.65632586829336    3.47613838079255    1.13760583776281
C         6.93050470670148    3.43320327842384    2.85967163506363
H         7.84079925090083    3.55434024550152    2.29225000844974
C         6.98356401326299    3.32887270447647    4.23970977305525
H         7.93328406813726    3.36843472777283    4.75157522611449
C         5.82034863176959    3.17023067152623    4.97182115201475
H         5.84290049522474    3.08304195241479    6.04694642991996
C        -1.79483107233258    4.52059440353572    5.24389737973923
C        -0.68645196875903    5.29179385512703    4.92000513002853
H         0.30982262277569    4.96612925465450    5.20456912862044
C        -0.86909097512894    6.50335968225216    4.27219149860137
H        -0.00804899510968    7.09539849015274    4.00294228007979
C        -2.14536125246901    6.93612100398086    3.95480759961694
H        -2.28216831266504    7.86959376765968    3.43072188979696
C        -3.24388685645344    6.16670060063443    4.29766782828873
H        -4.23920216177876    6.49767882606097    4.04373761613902
C        -3.07332440726792    4.95216740914373    4.94020150725698
H        -3.91314192816050    4.32065366975746    5.18412654123790
C        -2.40814027265980   -0.04236764213977    4.24943484664383
C        -2.54895544295693    0.01490531867880    2.87296915899586
H        -2.49853907049690    0.97280106264735    2.37676829522628
C        -2.76180196946191   -1.15619598667628    2.16730403005015
H        -2.88506201032329   -1.11209410738488    1.09626452252842
C        -2.82594356664315   -2.37151048081897    2.82775449021325
H        -2.99944303070460   -3.28160959270160    2.27336064754796
C        -2.66732075531357   -2.41986035786673    4.20211500779102
H        -2.71315905842233   -3.36513096933012    4.72202127740381
C        -2.45468055014765   -1.25545824092631    4.91920375878924
H        -2.34168540408196   -1.27395476289210    5.99270668305573
C         1.36621266917292    2.17197567992707    6.34907908429039
H         1.07133993758508    3.17953329511740    6.66834189410307
C         2.16074426071973    1.49994967078305    7.46273984493385
H         2.88728856079612    2.17110452737322    7.91604509407672
H         2.69818023675849    0.64071587394393    7.05767393012467
C         1.07480319795421    1.04791794513179    8.46423022974286
H         1.07595949233992    1.68333307321132    9.34890320054910
H         1.25998971274292    0.02572672964135    8.79270800340567
C        -0.27951535649478    1.15230768919634    7.72727119172395
H        -0.82797903702979    2.03922086529480    8.04739574327486
H        -0.91096284418010    0.28261431928201    7.90062102262524
C         0.11767559713365    1.30282309860678    6.26315823006042
H         0.39046628396682    0.32182816819393    5.85238689338469

