111
CSD_code = BEQDAE | q = 0 | S = 0 | Stoichiometry = C58H44MnN4O3P | MND = 6
Mn       10.92149071789387    4.28485483451901   16.46462488950316
O         9.33364181889918    5.24008401975685   16.78962649746605
P         7.83087016754375    5.54726709646862   16.98172805564475
O         7.05671775879703    5.69833916066110   15.73759871876380
C         7.20498392391645    4.21965803551199   18.07076404476284
C         7.78860604666969    4.00626233283477   19.31062167338266
C         7.33197823878047    2.97971309486622   20.11625779224226
C         6.28611750660602    2.17660841787533   19.68781044819698
C         5.70412012488236    2.39051886589210   18.44822246928119
C         6.17031182202031    3.40977425971563   17.63585813859786
H         5.74016317370160    3.59978300482710   16.66343592387548
H         4.88964552782388    1.76160088122556   18.11669827567246
H         5.92523973689703    1.38030401442796   20.32398517733295
H         7.78222856629190    2.79953652357334   21.08243261843361
H         8.59681501787381    4.65222973317259   19.62735774892082
C         7.82885369841888    7.04566606179046   18.03014602428736
C         6.61484579466984    7.54412438628354   18.47521090951886
C         6.58065972499154    8.69468703601927   19.24233875409217
C         7.76161682428320    9.34612916243795   19.56394462378826
C         8.97500884456762    8.84886188741464   19.11703767510539
C         9.00861785630606    7.69771497500906   18.34952790503483
H         9.94492573667482    7.29384080053156   17.98973554796195
H         9.89582111616663    9.35739161221773   19.36703982670375
H         7.73461320504118   10.24540813519679   20.16282032627734
H         5.63547809173598    9.08767884858000   19.58907604099422
H         5.70603282751294    7.02410544193006   18.20562458320690
O        12.90528533069317    3.29211993337253   15.99485009399892
C        13.14347076605941    1.94903602767402   15.57801842446150
C        12.99567890867717    1.78096665220117   14.07378250517932
H        13.14480195371124    0.74039035781551   13.79980743661894
H        13.73027464780941    2.38699501413470   13.54471305306448
H        11.99949469091041    2.08752955064258   13.76241156084553
H        14.15438141711324    1.66124666528755   15.90044929242968
H        12.41285805685769    1.33612631755811   16.11160098744805
H        13.47821531478128    3.87060068069252   15.46552498738758
N         9.99575171000125    3.13136640110485   15.11152178053448
C         9.68346080918113    3.49040811665146   13.83026592389796
C        10.16885779376964    4.60414566836287   13.14863716837735
C        10.99839831304903    5.56447070864148   13.72353328555264
N        11.40275369412193    5.59946723710918   15.02619520855700
C        12.12536010325481    6.74887822749650   15.16696679342575
C        12.65829783522870    7.23870607524368   16.35782199422181
C        12.55477179308041    6.58011854121440   17.58215298153753
N        11.98721250233634    5.35376056219622   17.79423364900518
C        12.09735796269488    5.11529634238541   19.13448726445659
C        11.66672067114489    3.96767440743080   19.79820082492135
C        10.99784107136295    2.91893242927855   19.17087520584442
N        10.60293245078893    2.87921423514128   17.86435822120853
C         9.97800167110064    1.67522306993380   17.69730643133395
C         9.37088594910170    1.22207254870251   16.52834744848141
C         9.33784945486821    1.95932715554691   15.34480045703466
C         8.57995529037005    1.57689812811943   14.18940112368576
C         8.78939426127170    2.53076192239433   13.25156375787292
H         8.36878089388412    2.59932400588413   12.26756040767685
H         7.95177286582374    0.70997357368623   14.12621130918838
C         8.72778563865516   -0.10787985543167   16.52950903690540
C         7.66327017366224   -0.39083803856788   17.37919411440654
C         7.07161531631991   -1.64095100300872   17.36725228588496
C         7.53842601085265   -2.62653268687262   16.51349089192227
C         8.59896736484213   -2.35378962803451   15.66574478268758
C         9.18796704395786   -1.10264929236641   15.67045496724023
H        10.01701200637453   -0.88990708007961   15.00976435256498
H         8.96708180910408   -3.11797258171127   14.99682325860445
H         7.07504464719455   -3.60199355095433   16.50499503858619
H         6.24070955090907   -1.84638152723860   18.02636198630967
H         7.29595686623899    0.38309336011359   18.03583430033248
C        10.02563610025917    0.91898205510690   18.91619227673808
C        10.65027185221651    1.69373536191129   19.83202266829358
H        10.87624858507788    1.46139581987022   20.85458012808992
H         9.63884066269958   -0.07332205389660   19.04072714377048
C        11.94184848223595    3.85756913288534   21.24682671526885
C        10.89673506105866    3.81162956733144   22.16408928636653
C        11.15658589787328    3.71430774107807   23.51896731737729
C        12.46300624211885    3.65574943023496   23.97479906529945
C        13.50945731887580    3.69842819126275   23.06854487551260
C        13.25180508893519    3.80176474970330   21.71368965833362
H        14.06691471885326    3.83096184368240   21.00475897140985
H        14.53035748838197    3.65163035928781   23.41910863822433
H        12.66515948209954    3.57829363443271   25.03284712586335
H        10.33704099824457    3.68566298900010   24.22236361911227
H         9.87911431659079    3.86663482405480   21.80695964533213
C        12.72852611809825    6.22520644220665   19.78559542404155
C        13.01291768185129    7.13390129767618   18.82248555648530
H        13.47153694536924    8.09704902487333   18.93414362493673
H        12.90853881927472    6.29962424254733   20.84029933552305
C        13.31808929188893    8.56217551423588   16.33369638862389
C        12.58087851702637    9.70260311319990   16.02907371246273
C        13.18921064051841   10.94449018856725   16.01389007477131
C        14.53995949099016   11.06204189557937   16.29699335629135
C        15.28015261202714    9.93157031572705   16.60050919433749
C        14.67307870993489    8.68885546217240   16.62246435206717
H        15.24974612471186    7.80549362348629   16.85832032234308
H        16.33404052029087   10.01853915787990   16.82215106265589
H        15.01443013667657   12.03213562066764   16.28305474868185
H        12.60691631694761   11.82404805758478   15.78107671204225
H        11.52596533976938    9.60723876248952   15.81644211462738
C        12.24478376020016    7.41601964332452   13.90185765558555
C        11.54398345052893    6.68151447405450   13.00660163812109
H        11.40492945077869    6.86571493962149   11.95913779479645
H        12.79585276782891    8.32082232148835   13.73356009818963
C         9.76136856232534    4.79435450647796   11.73996633424485
C         8.94749802278802    5.86750760856963   11.39099635948924
C         8.56321759091107    6.05127172632429   10.07526169734356
C         8.99201431348202    5.17229380786983    9.09418277989102
C         9.80210788332983    4.10217213302271    9.43502891066953
C        10.18232988135474    3.91090330653555   10.75131661054126
H        10.81639601197891    3.07653173612072   11.01790465718697
H        10.13827586627640    3.41345231545402    8.67329386440911
H         8.69395767224597    5.31912099438118    8.06645969452881
H         7.92600981430526    6.88336045950205    9.81394535608582
H         8.60730691063618    6.54099236792292   12.16326415128612

