97
CSD_code = BEQDUW | q = 0 | S = 0 | Stoichiometry = C28H64NiP4 | MND = 4
Ni       -1.83306711277958    3.43705342444029    4.31571825591790
P        -1.92293735072669    1.84039283998081    2.69204711283864
P        -3.43320664220355    5.03430022102456    4.00936666602593
C        -5.08460287122694    5.45221675954670    4.81656676449341
H        -5.29793927921459    6.50204991238570    4.58536916804385
C        -4.99876652602283    5.29676701689985    6.33116278887723
H        -4.23784897258862    5.94062723301525    6.76503829813444
H        -4.76105846697282    4.26674951834781    6.58254131467400
H        -5.95423001530290    5.54837310741086    6.79091406673788
C        -6.22656550097699    4.58182379883214    4.29970161706752
H        -6.34206445726073    4.65589157442203    3.22198372437905
H        -7.16465670896608    4.88962379395121    4.76195181305660
H        -6.05666692877071    3.53823721526632    4.55532364773838
C        -3.86874955513240    5.37342393213754    2.20551003592795
H        -4.48142687092376    4.51309725609116    1.91785167718749
C        -4.65566806467303    6.64034873434397    1.88164626567094
H        -5.61677742180900    6.67222207181210    2.38682596150108
H        -4.84264168032163    6.67239534954048    0.80797979320602
H        -4.09779169423290    7.53748826342182    2.14131034042313
C        -2.59238373893865    5.32829749975453    1.36787176658594
H        -1.90642669562020    4.58850447252559    1.78654165365240
H        -2.10136962653627    6.29911242875216    1.36170058012164
H        -2.81079949784809    5.06193225540535    0.33408859904065
C        -0.50051847354798    1.32952549564433    1.57870683272729
H        -0.68870034532249    0.31789056083537    1.20346746760359
C         0.77440727208436    1.32152239031649    2.41651967675698
H         0.81297518535658    0.44547494348570    3.05973776562837
H         0.79690233753464    2.20940095086340    3.05002805662419
H         1.66200122174380    1.31704605760434    1.78432358281257
C        -0.36212208158355    2.28150998201844    0.39532856406037
H        -1.22611928739504    2.22618839904360   -0.26232525835993
H         0.52403644407887    2.03289894003051   -0.18886055714561
H        -0.26581606869111    3.30770873671779    0.74074133501789
C        -3.36821079495909    1.66943834287048    1.50048763987654
H        -3.27693001008097    2.53553274790937    0.83511637852101
C        -3.41202493025837    0.40539695414907    0.64707038396020
H        -2.56058982465536    0.33395111409929   -0.02387499206290
H        -4.31561170076382    0.41733588712191    0.03710942910302
H        -3.44149694488006   -0.48724353385061    1.26730028603513
C        -4.67151537436307    1.81568372178426    2.28437078505802
H        -4.53162969756036    2.53187134221071    3.09457690204024
H        -4.97987461538217    0.86531612459603    2.71558226902493
H        -5.47948729695866    2.16155097958381    1.64072056096635
C        -2.57963204874493    6.62394044487802    4.46552773115187
H        -3.06520059966071    7.46315054693691    3.96031130647415
H        -2.73337372894711    6.75632494298167    5.53638746754054
C        -2.16172799462032    0.24946474571038    3.62891512636517
H        -3.23901769423382    0.13273019501147    3.75041484639876
H        -1.78953922645291   -0.59220605251398    3.03674938716178
C        -1.50441090148509    0.24946541071541    5.00251052296082
P        -1.74321075999683    1.84039055749190    5.93938091558927
C        -1.08650576913571    6.62393878511931    4.16590829752921
P        -0.23293106201913    5.03430352018917    4.62208620460217
C         1.41847055155367    5.45221203802753    3.81489373216905
H         1.63180625251380    6.50204576278976    4.04608900195534
C         1.33264457715307    5.29675683060630    2.30029754196723
H         0.57172360483935    5.94060923070252    1.86641620666565
H         1.09494749563349    4.26673642024593    2.04891976450930
H         2.28810855188924    5.54837157975301    1.84055186409642
C         2.56042836360433    4.58181990904676    4.33177076370046
H         2.67591977818328    4.65589249349506    5.40948918775125
H         3.49852338327947    4.88961659147250    3.86952607227212
H         2.39052959119651    3.53823265926622    4.07615173607330
C         0.20260026198097    5.37343581700517    6.42594532873721
H         0.81527576289455    4.51311121491140    6.71361389687201
C         0.98951738829421    6.64036311678608    6.74980343481973
H         1.95063305030211    6.67222909740671    6.24463499560599
H         1.17647871534466    6.67242036624503    7.82347181060608
H         0.43164635118381    7.53750159395224    6.49012379208542
C        -1.07377071268232    5.32831525981324    7.26357600590452
H        -1.75972506154305    4.58851901305319    6.84490775135934
H        -1.56478434729012    6.29913046462448    7.26973807206502
H        -0.85536011339052    5.06195736923801    8.29736210536618
H        -0.60093585926595    7.46315202479513    4.67111780047926
H        -0.93276376945932    6.75631337354314    3.09504722808642
C        -3.16563250905014    1.32952051224279    7.05271517330217
H        -2.97746030369886    0.31788042794750    7.42794612096834
C        -4.44055783057299    1.32153410677706    6.21490299356886
H        -4.47911131617483    0.44551395234126    5.57164670029205
H        -4.46306531327191    2.20943936663443    5.58143296382492
H        -5.32815152149654    1.31701675582083    6.84709972539387
C        -3.30402369705121    2.28149688834942    8.23610070490207
H        -2.44001645874972    2.22618348543953    8.89374180230861
H        -4.19017099355956    2.03287236833489    8.82030083000032
H        -3.40034713479457    3.30769601755348    7.89069396339981
C        -0.29794479981779    1.66942423331948    7.13094731711148
H        -0.38923915574404    2.53550453286415    7.79633518187214
C        -0.25412473189256    0.40536575971334    7.98433886661761
H        -1.10558065142837    0.33388174510663    8.65525339197346
H         0.64944109430318    0.41731347018661    8.59433035589603
H        -0.22460841604468   -0.48725909386197    7.36408879704132
C         1.00536568504540    1.81569974010346    6.34708016212585
H         0.86548008028493    2.53190501794132    5.53688961265231
H         1.31373795598694    0.86534549941563    5.91584851439749
H         1.81332827597434    2.16156016070016    6.99074585309626
H        -0.42711997365806    0.13274170748091    4.88100826491846
H        -1.87659165085108   -0.59221079405347    5.59467378586497

