73
CSD_code = BEQFUY | q = 0 | S = 0 | Stoichiometry = C27H42NiP2S | MND = 4
Ni        2.27924643714655    3.03533209950253   10.35585636504702
S         2.51539002426010    2.77557411256380   12.56917302001573
P         1.67690759886145    3.67951448648665    8.34500977007406
P         4.41559778766614    3.47972762905371    9.85002734592815
C         0.51102518223903    2.53248145769525   10.84404216179746
C        -0.59956588588294    3.32921082955476   11.09264305156311
H        -0.50434639565484    4.40098388509896   11.20255369994731
C        -1.85210243221808    2.74760250180769   11.22970896171876
H        -2.71153360849601    3.37756686934842   11.41249279693993
C        -2.00607661563097    1.37581980533636   11.13750068802732
H        -2.98550881448736    0.93113153556673   11.23786732112555
C        -0.89509047427025    0.57121295975342   10.95097844623848
H        -0.99598503609578   -0.50532242692322   10.92629240906004
C         0.35870975935523    1.14240392377557   10.80718012274873
C         1.61770468784891    0.30647639114018   10.77605380999212
H         2.43244745442715    0.88886221407402   10.28326062912941
H         1.47386902785048   -0.63483834894379   10.24341318841534
C         1.98520598581156    0.05333754081909   12.21198943440325
C         1.90745673046073   -1.22851878964414   12.73522008259063
H         1.62264068595132   -2.04190180941422   12.08083763850260
C         2.18853392265563   -1.48724026120270   14.06383867594172
H         2.12583075233505   -2.49589018358717   14.44508477838713
C         2.54636477203674   -0.44019826905955   14.89883249195212
H         2.76536046532881   -0.62537938621744   15.94066009005587
C         2.62170139941565    0.84214115810243   14.40054743379029
H         2.89663089291103    1.66626230717115   15.04232797845560
C         2.34547619077320    1.10994294881925   13.05873075267787
C         0.68162359245218    2.79723466925945    7.03711028437355
H         0.86506415816252    3.29154039164921    6.07446224274161
C        -0.80975796464724    2.82022171956901    7.35903554500691
H        -1.34322917833000    2.15321671564988    6.68327891282146
H        -1.23178033388883    3.81561084544013    7.24701414900587
H        -0.98069467529547    2.47869948455950    8.37872981262074
C         1.16230427326914    1.34953005022912    6.96225008224971
H         0.60589759593607    0.80311714898359    6.20237383106512
H         0.99959422586241    0.86279889226962    7.92255995576693
H         2.21991425594402    1.28797682867064    6.71344610090743
C         0.79939449296212    5.30942779942795    8.54464938208489
H        -0.21213844945440    5.01465269360975    8.84855436430695
C         1.44015859016567    6.05197429183473    9.71706604586473
H         0.76107800478652    6.79762629139406   10.12704517836495
H         2.34767078237467    6.56254000343029    9.40218341956716
H         1.69743699656815    5.33906386530921   10.51652777266468
C         0.70787794990323    6.18499246780218    7.30060687798404
H         0.04152179803578    7.02438110919015    7.49440736269988
H         0.31549449569189    5.63151658440107    6.45004716251839
H         1.68022915391414    6.59323343576463    7.03153976905048
C         5.49351157762128    4.53029301223538   10.94837785182418
H         6.33992301596438    4.90691463818422   10.35927206872849
C         5.98864322842196    3.70878710320257   12.13675271039708
H         6.51417262696992    4.35342151402312   12.83983266465969
H         6.66768717219439    2.91462036826211   11.83700987622474
H         5.13791477415524    3.26553510523113   12.65255361618925
C         4.66951390668642    5.70610503236118   11.46746387610622
H         5.25061530152925    6.28691403629390   12.18172525121161
H         3.78153536066948    5.33185623384219   11.97681242751909
H         4.36308021632081    6.37415752692994   10.66541381382242
C         5.55019790324856    2.05662229538665    9.41680153997948
H         5.60677200183278    1.47952805745485   10.34932608093072
C         4.89585269829608    1.17034851458672    8.35773555724635
H         5.37267528683452    0.19168792492507    8.33170950233395
H         4.99490675374520    1.61603604677765    7.36929417405583
H         3.83657805218609    1.02816205453444    8.57190939674968
C         6.96251668610145    2.43360177470159    8.98073435081760
H         7.53379369557787    1.52504946936072    8.79321114280939
H         7.48700492031232    3.00766492612691    9.73897235389828
H         6.95079907481363    3.01083263980696    8.05811903866739
C         3.21462821922317    4.08057128890540    7.37977207824386
H         3.47396476431306    3.17038120387175    6.83427246573517
H         3.00086154320291    4.85541218513583    6.63879502513513
C         4.37517067523069    4.49224827804414    8.28590091721955
H         4.24971044505535    5.53252314255883    8.59368066525743
H         5.32611984047599    4.41997515812036    7.75244015804890

