45
CSD_code = BEQFAF | q = 0 | S = 0 | Stoichiometry = C12H20N8NiS4 | MND = 6
Ni        2.99838504786672    5.51172972300877    6.11753515176255
S         1.55063985848131    2.08090289967020    3.66719557166882
S        -0.09218704504927    5.86462782302599    9.30581502607587
N         1.70756067882040    7.20930233512893    5.35441330006861
N         0.05749418260266    9.46477635590897    4.99193144876038
N         1.95591764673085    4.44348755882985    5.02539273272633
N         1.91182660442893    5.12707416760792    7.56453790119049
C         0.29488237634749    7.18068112754882    5.71263301265841
C        -0.49800494703797    8.14532432422492    4.81531952186531
C         1.43673586685054    9.52232664276024    4.57369822921432
C         2.23854640385072    8.56183557895106    5.46792816667811
C         1.84303180547397    3.41425811034514    4.46133108130612
C         1.05341430627946    5.50058214927221    8.28146679041229
H         3.29006334703565    8.56758060938975    5.17519084419228
H        -0.08857904442416    6.16445323519837    5.60374842165138
H         0.18911297103743    7.49830102562656    6.75193625697390
H         1.57722878751310    9.22549315822604    3.51852189993046
H         2.14999479720828    8.88826695108241    6.50617057851518
H         1.81102597101802   10.53825673942866    4.70424889520415
H        -1.54444323385768    8.15058335984640    5.12216845518151
H        -0.43658550951985    7.79072526989267    3.77047517336022
H         1.79128194567175    6.91793147612320    4.37454081589089
H        -0.51189001953536   10.19310767813486    4.58186058444528
N         4.28894086899281    3.81408300286958    6.88081950997623
C         5.70110799045172    3.84100888196945    6.52053066446903
C         6.49441844232572    2.87673060152668    7.41790329785317
N         5.93739984285046    1.55762640245165    7.24376760017264
C         4.55879070338222    1.50187885670953    7.66421753517974
C         3.75654002645043    2.46190244385698    6.76985207730161
H         4.20687418300396    4.10682975282676    7.86041994814389
H         2.70542829592485    2.45755187447925    7.06407461777292
H         3.84332568413707    2.13397800620716    5.73193424724313
H         4.42019911807423    1.80033785509655    8.71918749663105
H         4.18334491530729    0.48612157232345    7.53568004276208
H         6.50681118888132    0.82909811569947    7.65341166956459
H         7.54040891792534    2.87013377971836    7.10957097878985
H         6.43480646270519    3.23271768752411    8.46238250450061
H         6.08565211774832    4.85701019824322    6.62766894214864
H         5.80509536945035    3.52206174187021    5.48145401070441
N         4.04121407858727    6.57978212541600    7.20974194074796
C         4.15449356274855    7.60921782697998    7.77336486924523
S         4.44775209602934    8.94251718882502    8.56730543062628
N         4.08493146974055    5.89655835759120    4.67049269937568
C         4.94270151180915    5.52278387081124    3.95294804672539
S         6.08761035568482    5.15826155777751    2.92801201033054

