80
CSD_code = BEQFIO | q = 0 | S = 0 | Stoichiometry = C41H30ClF4NP2Pd | MND = 4
Pd        4.80518536012894    2.11478201524657   22.10609302068941
P         5.08233320477823   -0.10227011916772   22.54904223956098
P         5.71351259065128    1.66842020737376   20.12304309725784
F         5.93225399837019    7.15050226948278   20.48420234751800
F         3.48983160570891    7.34352347725975   19.33645072787259
F         1.73277696609212    5.25728427794321   19.47071051478883
F         2.49810905098889    2.94285781278979   20.86120607887472
Cl        3.83752971554729    2.56676893909132   24.10615344772663
N         7.79067432056868    4.96284906784602   21.04283323657068
C         6.78450740119883    4.73042020256448   21.84833007349154
C         6.93553295196621    4.15768015088083   23.14123905676503
H         6.06666607181034    4.01864049328665   23.77805289290165
C         8.19892177802393    3.87774155314498   23.58343206373065
H         8.36705805197527    3.46836988941487   24.57075814904667
C         9.30462049666650    4.12606675426716   22.74000019281517
C        10.63677317736991    3.85986607727572   23.10812312907216
H        10.83447828953015    3.46090995258092   24.09360803706683
C        11.65881230463974    4.10189099225488   22.23229221910527
H        12.68031021034223    3.89696241183115   22.51814704518005
C        11.39324390827281    4.61990029739713   20.95506210645110
H        12.21579606714360    4.80114694707705   20.27863264769436
C        10.11209053003830    4.90089078657589   20.56978438891194
H         9.88845823560872    5.30976254372055   19.59691872861523
C         9.03912158422097    4.66835465787495   21.45341558435395
C         5.42540545583761    4.99102714022273   21.33594381914352
C         5.06952299455584    6.13203994637724   20.62423326602221
C         3.81499392421123    6.24060756431048   20.03368809831772
C         2.91016975118440    5.18495060726314   20.11212000068269
C         3.28796973340005    4.06127564534118   20.82729576921968
C         4.50359018124201    3.95318783615808   21.47003238857650
C         5.27108470693970   -0.09800922285088   19.77954255337218
H         4.18282054219705   -0.14113562732244   19.65165013134114
H         5.75317790572245   -0.44525616382871   18.85907645127282
C         5.67795356894846   -0.94068424450347   20.98756059983991
H         6.76935578223836   -1.01251938089775   21.04369007972949
H         5.26031366192424   -1.94949674710128   20.91510440822601
C         7.52135439613433    1.57919884093974   20.19475014249782
C         8.09538284335611    1.39150516711598   21.44880471606726
H         7.45935467207110    1.38778040369644   22.33468273468035
C         9.46347834016808    1.23218507589703   21.56827768565024
H         9.90427940463002    1.06892213523612   22.54005870937504
C        10.26516708210320    1.29180293471316   20.44040159833837
H        11.33514933958923    1.18467581570424   20.53436306725395
C         9.69788847967329    1.49498008634213   19.19238092994472
H        10.32657820168771    1.54611208549065   18.31595788476320
C         8.32738429602101    1.62468856916981   19.06243442977074
H         7.87986279307624    1.77005701455157   18.08911807777658
C         5.29095980031328    2.63339345025706   18.65735117219640
C         4.15159793143778    2.34495590721905   17.91025920869166
H         3.57755561533476    1.45229050922294   18.11580771612805
C         3.74360081111204    3.21131670328542   16.91219963345498
H         2.85789157943536    2.98674028475448   16.33692945359939
C         4.45632703577763    4.37316376124523   16.66418383731848
H         4.12521536522582    5.05399446718425   15.89476650861968
C         5.58352179755176    4.66981336003503   17.41438038511656
H         6.13159036585576    5.58188317443278   17.23256215863863
C         5.99977646771966    3.81055190338660   18.41386848797702
H         6.86298194605113    4.05619002528319   19.01918781583737
C         6.18746733401460   -0.74280541791020   23.83461811257941
C         6.45494484388215    0.12902004938027   24.88786345958824
H         5.98904669074992    1.10979634422942   24.88895522417203
C         7.29423161815348   -0.26396834100709   25.91410255513970
H         7.49766964987730    0.40931612563183   26.73340492425976
C         7.87291775108583   -1.52281375903808   25.88885914260209
H         8.52851795827176   -1.83269772512076   26.68922141601745
C         7.61565603669579   -2.38760111340230   24.83661075384207
H         8.07125626648760   -3.36713279979253   24.81929828462239
C         6.77627268813133   -2.00281927794944   23.80643448312225
H         6.58392072489189   -2.67861122674893   22.98486456885209
C         3.47734921107665   -0.90628783746474   22.82005575736375
C         2.37008978871954   -0.20831333110062   22.34235269926920
H         2.51019206705991    0.77099976121045   21.88114975327537
C         1.10342923906511   -0.74300916596641   22.48690252636401
H         0.24408208825299   -0.20036657424957   22.12272805040977
C         0.94043877462166   -1.96793794903420   23.11437065519749
H        -0.04894738398001   -2.38317251405757   23.23704452836732
C         2.04085719125081   -2.65681657774567   23.59992835170254
H         1.90661765108271   -3.60502420548961   24.09987676088262
C         3.31231097453504   -2.13104531274014   23.45601417759082
H         4.16982419167634   -2.65901983835339   23.84924886933538

