71
CSD_code = BEQGAF | q = 0 | S = 0 | Stoichiometry = C26H40NiP2S2 | MND = 4
Ni        1.08455295444062    1.91422177171548    2.81309403246926
S         1.94042868401151   -0.16631732273462    3.09437912364944
S         1.01544914156949    2.10165002976619    5.48132965697129
P        -0.06529576325273    3.57146643378815    1.97541617476548
P         2.96457529197729    2.83598773822298    2.12534285051637
C        -0.46757812825865    1.06688827333680    3.47460264972306
C        -1.52748550629443    0.34175251462341    2.93932037095496
H        -1.55848831200440    0.10410585017569    1.88459526896715
C        -2.54805955181135   -0.10337679658320    3.76682258872358
H        -3.36890026331213   -0.66063921945197    3.33707084012862
C        -2.53039548178765    0.14860574591242    5.12904458714525
H        -3.33403289054611   -0.20544424457947    5.75780068178872
C        -1.46916616143715    0.83997101091819    5.68898561357215
H        -1.41342191534032    1.02871139284431    6.75100528749571
C        -0.46696185161632    1.28351585831882    4.85064732118367
C         1.93477610408149    0.59920275666913    5.79434493055937
C         2.26352257169698   -0.32147606239319    4.79170022929347
C         2.93980100976942   -1.48388782874260    5.18321044586376
H         3.18388848922144   -2.20289123672965    4.41549873304768
C         3.29746078760278   -1.70648104339805    6.49278468525819
H         3.82615478015261   -2.61108562461742    6.75618785612917
C         2.98211230611943   -0.77325809305186    7.47106844859606
H         3.26248051586462   -0.93724045975070    8.50044836285969
C         2.29304238989837    0.36807049881491    7.11350011523719
H         2.02522708131531    1.10571834105973    7.85573252030578
C        -1.01508781575780    2.97399277807613    0.48855332053225
H        -1.87880068760842    2.46058230598074    0.92867441847465
C        -0.16884683650080    1.92540985150926   -0.22933616532030
H        -0.77703361862791    1.32957072166648   -0.90759650153372
H         0.28952578609919    1.25465703195799    0.50896015546236
H         0.62284169725386    2.39565949195341   -0.80865993776781
C        -1.51098274599874    4.05128769652255   -0.46819809985623
H        -2.18048594320985    3.60473382636528   -1.20198259149422
H        -0.68581781548191    4.50689909955406   -1.01189444268243
H        -2.05711388945724    4.83275823083487    0.05548705172775
C        -1.27356575475547    4.69510346607147    2.84297569773336
H        -1.41380230310214    5.58377297105470    2.21355927759639
C        -2.61444254953083    4.00208826764206    3.06838993830546
H        -3.23977425756126    4.61254133537781    3.71808175875024
H        -2.46487817711247    3.03754611516351    3.55098175908409
H        -3.15185185183467    3.84764808643774    2.13608181535909
C        -0.68246643523519    5.11834107013583    4.18559908632554
H        -1.36970905849083    5.78089815439564    4.70899889199885
H         0.26367126973225    5.64130617014199    4.06545919704006
H        -0.51084204162584    4.24274840816358    4.80909192447264
C         1.14245732481601    4.82417633283878    1.32040584026084
H         0.70734406688551    5.35219053264059    0.46803034431127
H         1.27647773726523    5.55224219559591    2.12338456237757
C         2.49019075849806    4.20436247826783    0.95291068995706
H         3.27180792843608    4.96857269701536    0.92595019734907
H         2.42493619436715    3.75091073553102   -0.03907313888722
C         4.16569589750168    1.82498796862270    1.12062553907421
H         4.56586764466082    1.09757554409020    1.83824798745885
C         3.41133706986928    1.03338646978183    0.05518436361943
H         4.07070935294481    0.29833698678610   -0.40268350996461
H         3.03465618718461    1.68266265688588   -0.73300768635373
H         2.57597923503610    0.50091426345135    0.50767129299526
C         5.31659033115489    2.60965685978440    0.49942068369510
H         5.94221989966649    1.93071561738946   -0.07850514360744
H         5.94454600479930    3.07601777352113    1.25397562706063
H         4.94852051273700    3.38004274091539   -0.17518273408469
C         4.09269452557079    3.70379178901616    3.32862636971172
H         4.88702958352734    4.20420211239365    2.76193894855420
C         4.69868746355624    2.67391916178251    4.27773748585437
H         5.30056407756267    3.16809622515553    5.03895633238373
H         5.33395243895241    1.96549985807130    3.75046561559843
H         3.90918587071879    2.11805103061301    4.78123552498260
C         3.30720626797433    4.74795953131711    4.11665997001793
H         3.91525763167899    5.13845491402328    4.93130326842556
H         2.41315662778653    4.29756383443185    4.54693980229468
H         3.01780611359642    5.58509432697360    3.48452183749421

