31
CSD_code = BEQMIT | q = 0 | S = 0 | Stoichiometry = C12H12N2NiO2S2 | MND = 4
Ni        5.62801310416078    3.27319027424146    6.20561654932870
S         3.67249981967349    2.67972605900355    5.54117704094572
S         5.28947751724763    5.37982296412590    5.95049531096061
O         5.99403846960527    1.43144507284923    6.45415313645638
O         7.36912189629709    3.72553510186243    6.79910101799359
N         5.06001326824893    0.55188308158220    6.17492345227049
N         7.71884680409906    4.99028810354650    6.84560587522043
C         3.86203785443766    0.98249930108280    5.71855858742186
C         2.85122040221771    0.05159196512082    5.41645693662258
C         3.11957123421851   -1.28804025226353    5.59673049354404
H         2.36214324477356   -2.02277029751795    5.37246253064376
C         4.36859795372151   -1.69593048769871    6.06897501923592
H         4.59096546975073   -2.73978249533093    6.21411409766694
C         5.32216682921277   -0.75321501550843    6.35105790926707
H         6.31038839939272   -0.97864968959154    6.71928942789708
C         1.54281201533474    0.56110047100488    4.91525085806142
H         0.84341935444018   -0.25380887987434    4.75177328482300
H         1.69020872120731    1.10530650604598    3.98296408498861
H         1.12099821147479    1.26578800598247    5.63082858920264
C         8.95291222975399    5.30864666603744    7.26829095946943
H         9.57541815214716    4.47214241996300    7.54348813239278
C         9.34821628432055    6.61930814385544    7.32884425593000
H        10.34059197997961    6.86204490246864    7.66987450052041
C         8.45613351883495    7.62303555094601    6.94653598816657
H         8.75811720307828    8.65774931146374    6.99083032658331
C         7.18985878585358    7.29542188739239    6.51245651521097
C         6.82924803498422    5.93613739260252    6.46771876066925
C         6.18446629081185    8.31149606729149    6.08838674135397
H         6.58632213257732    9.31681406149455    6.17285087808209
H         5.28918249154216    8.22484596557566    6.70210616520925
H         5.88259232660115    8.12597784224622    5.05868257386134

