39
CSD_code = BEQNEQ | q = -1 | S = 0 | Stoichiometry = C10H16N2O10Sc(1-) | MND = 8
Sc        3.90156088829889    0.43950164156374    2.25844778013712
O         4.20489948802342    2.32805628296544    2.81067956033007
O         3.39118408030877    4.38331574453566    3.06689672828564
O         4.77002646090367    0.80733768769588    0.46782191638813
O         4.75451008140564    1.35994632985347   -1.68754110107884
O         3.46910961943358    0.19433432510680    6.35295427835113
O         3.96346082306810   -0.05162632604092    4.20053903610086
O         2.79670569473254   -1.02148350047564    1.62214396946990
O         0.81805544187200   -1.98050392157131    1.25662499095347
O         6.37008632140834    1.41469887372804    4.35377414299307
O         6.04246673612052   -0.41112258784490    2.41805886914695
N         2.35302418412207    1.81228771840063    0.85211123635701
N         1.62379539930802    0.75681098479636    3.34169105669409
C         3.51685529022264    3.34099229771362    2.44689989954722
C         2.82743921544893    3.18385545251952    1.06251374960572
H         2.02068245986882    3.92409149275365    0.96193890950532
H         3.60152360173465    3.41862107791414    0.32509250067111
C         4.20612473458272    1.16165374054247   -0.61736304818393
C         2.66176762800141    1.35430062145018   -0.49999055950343
H         2.30735049960513    2.04988288607406   -1.27646239052380
H         2.20949429545532    0.37134407739935   -0.66570467523630
C         0.93845874713852    1.68519051646147    1.18600735477130
H         0.57726802089717    0.71949408220002    0.82127874541981
H         0.33757228533162    2.48245213138920    0.71178549118350
C         0.76562050943876    1.75051240363376    2.70628818951176
H         1.06206564968140    2.74289667881757    3.05754643518155
H        -0.29716287869235    1.59394081400870    2.96456738022655
C         3.22324828259430    0.32675908185298    5.16492975888265
C         1.91756048615110    1.06171783524959    4.73738357284420
H         1.09443156558000    0.79780305667404    5.41832744525145
H         2.12761037016808    2.13049266991779    4.84650034206901
C         1.58011445731383   -1.27395984006648    1.89559587459218
C         1.06918265143101   -0.59189325361508    3.20290791226202
H        -0.03165442251224   -0.59163015759299    3.22064761959226
H         1.43240569632156   -1.21722916755762    4.02386660516802
H         5.77314198858814    2.07064034012460    3.95536848083702
H         5.81453014743438    0.92063686355547    4.97289796765043
H         6.42555876159607   -0.11958120543209    1.57595917227662
H         6.40932473753451    0.18476225111140    3.12051480255486

