74
CSD_code = BEQQEV | q = 1 | S = 0 | Stoichiometry = C33H32N5O2OsS(1+) | MND = 6
Os        1.46822718503232   10.36910948358173    2.84355307731844
S         5.15277036320059    9.53160598624219   -0.96377324153464
O        -0.33787681282834   11.40935171972784    2.76519354843405
O         1.21464000446801   11.95393357951494   -1.07927724404815
N         1.76257075938676   10.95732725284061    0.83285497650167
N         3.22308223014244    9.46082937049550    3.14947308783066
N         2.59927109491814   11.93513301499496    3.29995273919201
N         0.87163144280326    9.89004447911924    4.67540445873677
N         0.24433029418462    8.84166783702368    2.40505765608486
C        -1.08768274188854   11.49698525872782    1.71717660098030
C        -2.48611928788026   11.63026842303932    1.88724278578346
H        -2.86217922933885   11.60866170912304    2.89942339577887
C        -3.33124721478380   11.78136348837163    0.81971944970951
H        -4.39442436906456   11.86850908971241    0.98773006936822
C        -2.83132574237011   11.82508035522930   -0.48323621473394
H        -3.50290397338900   11.94744811291173   -1.31768455405836
C        -1.47988590566553   11.71991654727269   -0.68912249834753
H        -1.07222981591725   11.76038813075500   -1.68746632611007
C        -0.59078706297588   11.53681559364658    0.38291425073545
C         3.43757100889914    8.13676017972364    3.14875705674191
H         2.61235104502646    7.52205743654386    2.81221375669380
C         4.62527147708503    7.55972771038918    3.54333240783457
H         4.73667910025676    6.48807390772093    3.52283489817674
C         5.66864395782811    8.38055067931841    3.96533729006207
H         6.60792900106061    7.96017756544247    4.28532890582562
C         5.46910388542439    9.74722646853102    3.96595751719835
H         6.25285888158290   10.40910756301315    4.29531245892522
C         4.24375823804270   10.26867317588386    3.55377495736493
C         2.17878957336264   13.20170949287183    3.28483703706123
H         1.12003116546278   13.34069442551767    3.10883099668086
C         3.02469953369585   14.27434302598124    3.48425590562568
H         2.63719712020643   15.27958823606703    3.46054497339665
C         4.37641621122670   14.03378843739956    3.71242420466591
H         5.06419304443742   14.85033536398934    3.86209704181381
C         4.82118844950388   12.72577411671558    3.74573100815369
H         5.86310429117693   12.50998895429352    3.91718407858300
C         3.91222134198295   11.68761241361051    3.54373459288493
C         1.33693779506645   10.36691789730685    5.83191466312096
H         2.26090142766381   10.92953922005154    5.78570435932913
C         0.69932236854778   10.17609241159248    7.03984457678424
H         1.11824135737328   10.58730662337047    7.94350797289855
C        -0.49341101372338    9.45984196913928    7.06190745553690
H        -1.02722519204692    9.30613876734251    7.98581325223476
C        -0.97605060618760    8.94486378938436    5.87565529548494
H        -1.89139696965489    8.37700347319779    5.86643819502390
C        -0.27586536319193    9.16578024299966    4.68919137943540
C         0.02612079745780    8.29364428936258    1.20858618468662
H         0.77576325726064    8.48871789906950    0.45373341126786
C        -1.08506015131141    7.52889919698300    0.91656076097560
H        -1.21614748835313    7.12005675277994   -0.07158598120221
C        -2.02988604527789    7.31440720972213    1.91395027334823
H        -2.92100522458390    6.74119182793638    1.71521743451828
C        -1.80077825160598    7.84625451903002    3.16762262588012
H        -2.51498508964526    7.69039678924203    3.95876833023324
C        -0.65124066634090    8.60202201377995    3.39697530179759
C         0.81546486750969   11.46319690224501    0.09112337621974
C         2.65450668892580   11.95073292601738   -1.11625355231985
C         3.01622476116443   11.02666871953670    0.08109187733448
H         3.79318614551857   11.49653285312433    0.69680031848373
C         3.46954928982699    9.60853745753671   -0.27346308191249
H         2.81884592097351    9.16738808799575   -1.02672421473450
H         3.45013859218289    8.98525439727204    0.62095056757039
C         6.14436029873778    9.67821294660345    0.54655477103896
H         7.18143902480610    9.65041652833522    0.22972649485666
H         5.93630158208522    8.83942149300367    1.20446341139656
H         5.93751336103667   10.62132686319016    1.04448613149219
C         3.13404444619988   13.37661978848744   -0.83391912186910
H         2.71723570581855   14.05694641972365   -1.57151064290353
H         4.21843329486969   13.41959882515489   -0.88698217672669
H         2.80873706848146   13.69742626235256    0.15529201231698
C         3.08768836290892   11.51086386435110   -2.50685730416725
H         2.71573597075621   12.23426457314548   -3.22757297556286
H         2.67702179014715   10.53899332953132   -2.76363090374447
H         4.16946934230436   11.46729428476803   -2.57460558342790

