80
CSD_code = BEQSEV | q = 0 | S = 0 | Stoichiometry = C41H33ClINP2Pd | MND = 4
Pd        6.97251738062518   10.92151735832356    1.42659860572509
I         6.38712626617906    9.88934767023543   -0.92372943660833
Cl        8.46614702781340   15.39062302967062    3.72479363821239
P         9.15925049504056   10.39610435573515    1.21701971055034
P         4.86819846327023   11.64887020413080    1.78286533313239
C         7.41868893085033   11.74373092757860    3.14311904939637
N         7.73754982365843   13.02155210685435    2.97350654974442
C         8.07090683516444   13.73742215138764    4.02493795176487
C         8.11588098578695   13.24401701238143    5.31671747844784
H         8.39663331963360   13.87719562430743    6.14214222436465
C         7.78535202073162   11.90860740866891    5.49457032648185
H         7.80708807574656   11.47588832394312    6.48517584813593
C         7.42947946428448   11.14223870947909    4.40020103048046
H         7.16657732457880   10.09506288601510    4.51256692351549
C        10.30488770157374   11.03859773058396    2.47696690477000
C        10.90164555891673   12.29010980619111    2.37857453957339
H        10.78857068952860   12.87574248672487    1.47680103047319
C        11.63981875359760   12.78806999688997    3.43744265061034
H        12.09768554590240   13.76312447029454    3.35767277744068
C        11.78370563186747   12.04712995664720    4.59803841811640
H        12.35434741315700   12.44330691043028    5.42491953541790
C        11.19317324019220   10.79734433500003    4.69979234172682
H        11.30440360744997   10.21703044824050    5.60430196089800
C        10.45197386970759   10.29753888531347    3.64747044713497
H         9.97737699548324    9.32624831474078    3.72381490809015
C         9.61595927637988   11.30070855701130   -0.28760643660118
C         9.01369799377736   12.55788959433285   -0.39313900916805
H         8.38909482666334   12.92288109189183    0.43189523669037
C         9.21472898841640   13.32597038505156   -1.52271746433292
H         8.75230121786944   14.29898677901103   -1.60713975999968
C        10.00002027848054   12.83694788714944   -2.55664105367744
H        10.14680005690909   13.43060173394779   -3.44676540672854
C        10.57904058880595   11.58373324590293   -2.46008895046092
H        11.17285291588808   11.19906390933960   -3.27603040091445
C        10.38910981571230   10.80808430852383   -1.32803447717905
H        10.81702750956254    9.81766358483231   -1.26865933495340
C         9.69465527870709    8.67690910370444    1.04920649010354
C        11.03744894762119    8.34208703826050    0.89861628477503
H        11.78733644303747    9.12219589649582    0.88013260489952
C        11.39947297222707    7.01298155967224    0.78901467429495
H        12.43934172129800    6.74781563367735    0.66406310800562
C        10.43228807956554    6.02008485244700    0.84162765231659
H        10.72293508363813    4.98384233143515    0.75149434458109
C         9.09902495921628    6.35070694331754    1.01791749286603
H         8.34940285809985    5.57525579622899    1.06849581014186
C         8.73021745703693    7.67901262058411    1.12599753596538
H         7.68773554888671    7.95572654629782    1.26710759111516
C         4.17355503294959   12.43376268515767    0.30413332825185
C         2.87671846594869   12.28957106160676   -0.16459773511079
H         2.17261023183083   11.65735802458145    0.35597281025776
C         2.50082093095743   12.93924839897253   -1.32861428029563
H         1.49438046574606   12.82230680744456   -1.70276124745774
C         3.40849845658817   13.72332208192234   -2.01958273826226
H         3.10700919767967   14.21919015012216   -2.93023120735174
C         4.71005411146902   13.85635035384446   -1.55979859113936
H         5.42357828107048   14.44895250931700   -2.11302066659410
C         5.09333611894224   13.20722686482768   -0.40420106105975
H         6.12238734672267   13.26488652602883   -0.04321268785069
C         3.81292640575714   10.27054060341541    2.29589330413379
C         4.41295772763388    9.01503332568801    2.35326507653600
H         5.47468932059209    8.91512043885837    2.09159138997704
C         3.67798761614863    7.91128012719259    2.74438167526689
H         4.14049849074382    6.93598537907774    2.78242810850138
C         2.34407525287853    8.06164877580939    3.08718215925719
H         1.76509627580455    7.20087340417342    3.38744468439849
C         1.75094948145816    9.31470310096110    3.05917803856226
H         0.71514728987323    9.42757108454012    3.34465216159868
C         2.48131720821854   10.42258692901773    2.67101210117457
H         2.03164342523179   11.40664285327968    2.67581025067246
C         4.59964144081517   12.89394759817808    3.08045555206142
C         4.49112241823826   12.47537877122826    4.40442893742698
H         4.43985167151419   11.41726311098458    4.62926982702148
C         4.45409080076632   13.40472844642303    5.42582640840039
H         4.37080813589533   13.07272275317415    6.45064586185354
C         4.53597481177652   14.75752509920011    5.13753256479098
H         4.51912054670235   15.48215069702367    5.93805809083081
C         4.64475376561851   15.17889303954423    3.82298477712362
H         4.71287070852386   16.23277656864643    3.59663842427838
C         4.68070664254358   14.25318664027116    2.79630976350977
H         4.77534368493636   14.58529528088186    1.77149764045444

