27
CSD_code = BEQSEW | q = 0 | S = 0 | Stoichiometry = C10H12N2O2Pt | MND = 4
C         2.12938238313885    4.48314995852813   -2.95717736186919
H         2.94077536428973    5.19784432877337   -3.08205231281993
H         1.19350247962529    5.01662297547605   -2.83178064338793
H         2.07951019001790    3.87873703459758   -3.86165327471393
C         2.42401471457893    3.58962720210323   -1.77322505739781
C         1.46906389143519    3.47480070512052   -0.77395677345497
H         0.55695835709080    4.03744925119775   -0.89742122935765
C         1.55945351787985    2.70091833507574    0.38823183942227
H         0.70177683382301    2.74177322617957    1.05375154038424
C         2.65194655420809    1.18289339285149    1.89796474581798
C         1.67985484430622    1.09885671702291    2.89221356177403
H         0.75768961893460    1.65479652550467    2.81207373269764
C         1.88916007992421    0.29903701766732    3.99799264407593
H         1.13202207273899    0.23877929954336    4.76523063378729
C         3.06757446505777   -0.42559928999701    4.12573502028441
H         3.22103175811479   -1.04885209594781    4.99473958919426
C         4.04355475884886   -0.35685464868007    3.15553742988560
H         4.96297814716270   -0.91508150100284    3.24630223874040
C         3.85925580691801    0.44722286070566    2.02393431647423
N         5.97073649074456    1.46636194332613   -1.43589330924692
H         6.46525590050968    0.70473633827496   -0.97529379917584
H         6.54235601204393    2.30717113159478   -1.41001572771697
H         5.78143693238240    1.22324209699803   -2.40499268948805
N         2.57764723832712    1.94726791949574    0.72934472997718
O         3.56189331882982    3.00348004506577   -1.81329676318675
O         4.77819138498912    0.53007531351666    1.08657125625384
Pt        4.17507688407966    1.76264391700812   -0.35776433695327

