63
CSD_code = BEQTIA | q = 0 | S = 0 | Stoichiometry = C22H30CrO9Si | MND = 9
Cr        9.04955006800526    7.58505193006179   11.95709823681182
Si        8.76677949528749   11.05756995931639   10.41800055811605
O         2.15640310183885    5.93590475714022    8.86206444754443
O         3.63458058369812    4.43249359401226    7.15420635640267
O         6.25245850084947    5.12118037419007    8.25566350770373
O         6.14725794083229    7.42046336571401   10.09173756599296
O         3.13691817580414    7.89426310675806    8.09346597405327
O         5.19314492250514    9.47946743317721   10.64135094189186
O        12.00863859930712    7.27645642011880   11.87412574044237
O         9.48418048472292    6.73671913074967    9.14294475566110
O         9.26374300139803    4.62331791515033   12.13134002653106
C         2.81219081092312    6.55127179226625    7.80434406446587
H         2.16193567821202    6.60501211424759    6.91712020648016
C         4.07111400369496    5.72765049285845    7.46193585789022
H         4.55457872287569    6.18930956512576    6.58684394492253
C         5.07092570773948    5.77849829884110    8.63877772186603
H         4.61493035091454    5.28432532855230    9.50671878187712
C         5.32011745670284    7.26232796923223    8.95471514107814
H         5.81479473950368    7.72024830529590    8.08036816535007
C         3.98701188701794    7.97615676450119    9.21668496140436
H         3.51176795582711    7.49791115533864   10.08647023841926
C         4.29035814420351    9.43408594175988    9.55659709277801
H         4.71859920153772    9.93186243433792    8.67459865712363
H         3.39403661509153    9.96723169564688    9.87498519543658
C         6.38466268634452    8.77661268536570   10.37243540959958
H         6.87748434758214    9.24059204634311    9.49417959505500
C        10.86350949323272    7.42797485213310   11.94037828495019
C         9.27308473972414    7.10104478177087   10.21922158727830
C         9.15361075643609    5.77488740802036   12.11283260616552
C         7.26194064442399    8.82561827685003   11.59405359059143
C         6.91673899210536    7.95259356225927   12.63347045535582
H         6.02712154431636    7.34462583964096   12.53774594193823
C         7.69737037394704    7.89644787879292   13.79689157144826
H         7.40385238304599    7.24827801328848   14.61460861000671
C         8.79237624106683    8.74858323041399   13.92947495236882
H         9.37040482999711    8.76132645852700   14.84567222132474
C         9.09589242304622    9.65418223187185   12.89624625581618
H         9.90517668696923   10.35658466371828   13.05193103590276
C         8.33290313144429    9.74466155437864   11.72490426162451
C         0.81704312113399    6.35889535669154    9.02859595923223
H         0.44059737546005    5.83099220679942    9.90169063929226
H         0.21795401319996    6.09705974138898    8.15026674827846
H         0.76118825732550    7.43968630264240    9.19162956987056
C         4.47484071541828    3.71462537508059    6.27197055678708
H         3.99832206867463    2.74586817976398    6.13644430814235
H         5.47636997723942    3.58608963147815    6.68543452467457
H         4.54899702162923    4.22655787099879    5.30512496747256
C         6.96955426543584    4.53132933956029    9.32171800175463
H         7.87516214500692    4.12025971459632    8.88149676300846
H         6.38354780353085    3.72765069833050    9.78226294723150
H         7.24015830539678    5.26773044275628   10.08198676957889
C         7.19959324032213   12.04573336442187    9.94096670621894
H         7.07120316018136   12.07162105090428    8.86286388963877
H         7.26663920875418   13.07495702723170   10.28110909634277
H         6.29964724392241   11.61689279843905   10.37123419163188
C        10.02732545692900   12.26943507708949   11.18633199922689
H        10.22353342790869   13.08181212799454   10.49400819053237
H        10.97840365462219   11.78797928609395   11.39127790635908
H         9.66732221514223   12.71387712173941   12.10975140867721
C         9.60615138997716   10.20290862886376    8.93417133134022
H         9.97955251673689   10.93564565440420    8.22470654575068
H         8.93312119866722    9.54153168813327    8.39739268792728
H        10.44882679521388    9.59866798683449    9.26205977135836

