63
CSD_code = BEQTAU | q = 1 | S = 0 | Stoichiometry = C30H24AgN8(1+) | MND = 4
Ag       10.17273288949614    2.57950005729614    1.41742208345700
N         8.34164612815157    1.63660073212153   -0.98206425806320
N         9.52773325720090    1.30252571172616   -0.42922631515161
N         7.75796760909325    3.81659500204750   -0.23879822743946
N         8.75352718709541    4.25856155647450    0.55919645829635
N        12.59497112921275    3.18578295483848    3.34511912347622
N        12.39102867397333    2.97692428689429    2.02633402077793
N        10.68922528334228    2.44900706521443    4.55535766423904
N         9.84179857366251    1.90508062273357    3.65590608208605
C        10.22874671561114    0.65763504274650   -1.33206913994517
H        11.20459603807195    0.27737553379037   -1.10035457317497
C         9.50228987950518    0.55028031221341   -2.54066138580491
C         9.73740868426452   -0.01958317069105   -3.79639295322296
H        10.66767181805822   -0.52449058397042   -4.00225690897779
C         8.74922488229092    0.08563769273431   -4.74304427307154
H         8.89639702489676   -0.34212221371132   -5.72226344451909
C         7.53846359014712    0.73849339187212   -4.46804183375423
H         6.78998937459292    0.79300367945922   -5.24330311680812
C         7.27975203411604    1.30664862359801   -3.24229967278152
H         6.34136395861352    1.79987890655042   -3.04578287950596
C         8.27710038458160    1.20953732861665   -2.27555908472888
C         8.93098576176370    5.53582062737228    0.31425249648423
H         9.66995623597234    6.10086178033762    0.84825884793283
C         8.03142940132403    5.98077352213075   -0.68188694261080
C         7.76712705591523    7.20148849513262   -1.31196848105948
H         8.32956528973115    8.08400990505864   -1.05221719909933
C         6.77470763008969    7.23183109626174   -2.25946733585665
H         6.54372589828655    8.15606142769258   -2.76536178405242
C         6.04167446615339    6.08205141795001   -2.58911861144571
H         5.26876844743263    6.15588676283368   -3.33837653533772
C         6.27875007660797    4.86948772013884   -1.98464827892190
H         5.70093048829229    3.99712506531429   -2.24487365130998
C         7.28643366786260    4.82611189984460   -1.02459334048009
C         7.40502718810811    2.42551252774492   -0.23402177076195
H         7.42448054080847    2.07502444051704    0.80886703550347
H         6.40562628079641    2.30313583488462   -0.65688992584829
C        13.51748570073111    2.55090605407295    1.50446579382275
H        13.59153871673514    2.34248714658795    0.45485569934169
C        14.52104088240198    2.45966187334257    2.49677457178495
C        15.86814952359720    2.08337017265625    2.51899887670817
H        16.36343602387241    1.77002898362881    1.61389203878078
C        16.52664454577896    2.12956384816960    3.72236155038105
H        17.56591087295307    1.84582348968448    3.77658051837494
C        15.87883863763201    2.54240533091132    4.89607525243981
H        16.43863569539365    2.56413355068563    5.81822429891118
C        14.55603921812226    2.91979264519956    4.90331611646099
H        14.07411741354392    3.23827591676609    5.81357683737771
C        13.87735056406730    2.87348963446100    3.68851729883969
C         9.29564388870884    0.84515103598160    4.20444977748529
H         8.57431758675172    0.25881082782598    3.66931949645725
C         9.78552940224863    0.65672980898405    5.51750022200212
C         9.55947915856090   -0.26879806435288    6.54188569003642
H         8.86247795338315   -1.07957386513539    6.40232287900479
C        10.24867098773569   -0.10468800386626    7.71731168563729
H        10.09934591075428   -0.79966518807105    8.52859507842962
C        11.14828593429690    0.95672382127222    7.89662269261634
H        11.66281686473958    1.04769719652739    8.84066268991779
C        11.38879753344789    1.88190325202011    6.90769143684822
H        12.07627147192400    2.69744812510711    7.06602837195905
C        10.70028163237401    1.72101005460497    5.70801542894813
C        11.49655280396441    3.57553157621796    4.18184566837791
H        10.86621892449688    4.27058745932906    3.60711764223788
H        11.87649860665008    4.06313826159265    5.08212049810719

