84
CSD_code = BEQZUT | q = 0 | S = 0 | Stoichiometry = C43H35ClOP2PdS | MND = 4
Pd        4.35178855984500    1.07390946918193    5.00787204611910
Cl        5.40930064402819   -0.99384167550095    4.76630007727299
S         1.85302758623080    2.92536662356806    4.87491860670397
P         4.72783827225942    1.51856701146513    2.82122445187976
P         4.32797606044803    0.59028160948077    7.21366839620436
O         4.23119224479730    3.67284194629103    5.76592294356368
C         3.42997708773496    2.75113394716430    5.24007077840244
C         3.78986702950535    4.97133242762593    6.01868527010135
C         3.23761766514915    5.75353422660661    5.01681565265509
H         3.12218197086429    5.35457497485491    4.02076654124825
C         2.84160146420117    7.04516537124571    5.31476878974103
H         2.40659430317056    7.65749523225682    4.53935079351134
C         2.99994147878347    7.54917905117285    6.59438885137057
H         2.68437902402863    8.55670152185640    6.82053149900695
C         3.56505431494070    6.76235332366022    7.58428970473634
H         3.69343839177875    7.15282953581224    8.58274162072553
C         3.96354076937611    5.46896489985276    7.30152791573728
H         4.39932264506220    4.83677994870536    8.06014090155483
C         4.53361055803749    3.18251981839367    2.11562616668362
C         3.25573731586055    3.60986474970539    1.75981386459064
H         2.42067657789327    2.92722301078228    1.84404418571635
C         3.05716203799727    4.90375049755474    1.31532403910731
H         2.06399618213664    5.22991741818933    1.04314945878512
C         4.12674136074974    5.78184594555304    1.23029947956171
H         3.96935341156111    6.79323333909994    0.88563307851650
C         5.39616366267712    5.36428896544594    1.59571035718939
H         6.22892431237804    6.04988728097648    1.53581289643936
C         5.60161234680068    4.07129029551183    2.04254192108979
H         6.59214579327224    3.74578823163895    2.33160094981821
C         6.45744364429511    1.08846087115684    2.48183649635195
C         6.92794966617217    0.43339274320037    1.35416020376264
H         6.24691079709800    0.13774046723014    0.56983857944119
C         8.27602720873528    0.13010040172825    1.25716228990136
H         8.64508854848909   -0.38944088376739    0.38478981061428
C         9.14749600515305    0.47457039118265    2.27612907813624
H        10.19516108649104    0.22417478843596    2.19576130563228
C         8.67666502511833    1.12117292273453    3.40919519940478
H         9.35362235864534    1.36903014854661    4.21365036479645
C         7.33419613427386    1.42344563689354    3.51348120611346
H         6.93228797709071    1.90282259747504    4.41066917289196
C         3.63169698778118    0.51577676373689    1.78846755584234
C         3.62857719888441    0.56553182062257    0.39740717466971
H         4.29961513868101    1.23729881736342   -0.12147289868217
C         2.74695607509519   -0.23007408671498   -0.31080419253690
H         2.74563773073034   -0.20115410251366   -1.39090712861040
C         1.86075003439603   -1.05858416546813    0.36076599381814
H         1.17632818355857   -1.67770164549596   -0.20048644478817
C         1.83916150755604   -1.08430278806157    1.74592262517648
H         1.13297132145043   -1.71587300501007    2.26422737059394
C         2.72196396068743   -0.29576291076044    2.46061648631923
H         2.71513585925297   -0.28867312187082    3.55658969220010
C         6.08362541049016    0.35632393882659    7.59656701900793
C         6.89233708075855    1.41281244868814    7.17259277011306
H         6.42018818138413    2.29448051405247    6.73173891131903
C         8.26336590693860    1.33517341630442    7.31621835305576
H         8.89162803622088    2.15263565575883    6.99142207729774
C         8.83282162700324    0.19664275690048    7.86792017836685
H         9.90604782054299    0.12753126013197    7.97009982843700
C         8.03185661695395   -0.85738915999291    8.27243285862908
H         8.48182827497647   -1.74821489642216    8.68579982106611
C         6.65491649599354   -0.78478746048672    8.13803502701654
H         6.03223433729970   -1.61937151874133    8.42572685433370
C         3.39818863970894   -0.89147688453073    7.66888997053339
C         2.60197622349115   -1.46811389179405    6.68608927653860
H         2.59660672942565   -1.02788477856846    5.68819313903802
C         1.84328948750274   -2.58560229184412    6.98105357398133
H         1.22816292849341   -3.04083785065927    6.21905827886356
C         1.87561928974378   -3.12078713253981    8.25862193144678
H         1.28857241271813   -3.99747085493868    8.49023423626662
C         2.65137611186195   -2.53237012179864    9.24608150846517
H         2.66196444655233   -2.94822287426430   10.24328186180291
C         3.40881378356676   -1.41191994078912    8.95901732967841
H         4.00156120320809   -0.93456448975429    9.72831715711720
C         3.75576764487566    1.77234223705266    8.47575926859908
C         4.56409817894286    2.29308658672737    9.47852629517956
H         5.59668929205001    1.98059180024875    9.55844256695216
C         4.04314458367583    3.21454764824583   10.37160050819156
H         4.67259174848704    3.61823669595325   11.15193217264471
C         2.72450318568505    3.62415583998639   10.26330912332722
H         2.32703717063020    4.35086792582422   10.95633964141169
C         1.91522969780944    3.10576792682594    9.26369705634803
H         0.88866545409836    3.42802923211539    9.17399794598122
C         2.42755366422724    2.18086861222065    8.37559200861786
H         1.80773281353504    1.77258899253810    7.58567027136113

