72
CSD_code = BERBEH | q = 0 | S = 0 | Stoichiometry = C27H40N2O2Pd | MND = 4
Pd        2.47391655763648   11.33352687208532    4.99239571329183
O         2.32383782225318   13.35611481358397    4.91026058726432
O         2.67920959021048   15.12227453809895    6.82922047308589
H         2.64476516641243   14.32452571778961    6.24392101507568
N         3.69727487248245   11.36310864507497    6.95293873944190
N         2.71167350452677    9.23812273988684    5.17109854561718
C         3.24493411205192   13.91250485658442    4.14781392927624
C         4.20418721552797   13.16293675202268    3.44772735868180
H         4.12962308961725   12.06305729793631    3.46374239808408
C         5.21273081948515   13.78859435936007    2.75017983247606
H         5.93387277848899   13.19398372233500    2.20424756389888
C         5.35026982641669   15.17082380065862    2.76390742305637
C         6.49552898869973   15.78816912772714    2.00186322517614
H         7.38418993404852   15.15948125219159    2.10636299081388
H         6.23363462245998   15.79900067642578    0.93694885001218
C         6.80413751862380   17.21149020007849    2.44778687027484
H         7.51288827172380   17.67253311343386    1.75560484073698
H         7.26200743907451   17.19776271526066    3.43962120132251
C         5.50803878715667   18.00752237710240    2.50482683692612
H         5.71196760675021   19.05858483019821    2.72207195872644
H         5.00571276549123   17.95514535385182    1.53574158103211
C         4.60621867931172   17.42606541028220    3.58613334628390
H         3.65372016313186   17.95285650815331    3.60369103502983
H         5.07291021691024   17.59161887042108    4.56455935858123
C         4.40135308504372   15.93806354911309    3.43683786844296
C         3.31638583411092   15.32182590008659    4.06761175886163
C         2.25943421706348   16.15102198030927    4.70342596846049
C         2.06171602981349   16.08812466546055    6.08606709056298
C         1.21531251043654   16.99254983789279    6.71193289392292
H         1.10362478667869   16.94899373187024    7.78446256713850
C         0.52628345280457   17.91544723922562    5.95472097123642
H        -0.12157204982461   18.63075647351841    6.44249718007407
C         0.60497388635393   17.90695608434451    4.56697726065015
C        -0.21161410817607   18.91090235261841    3.79327324267061
H         0.29784086380310   19.88031252211877    3.84846617166425
H        -1.18630911185222   19.03345849694744    4.27243808540998
C        -0.39062779895878   18.52812002324966    2.32945794657744
H        -1.06926870180028   17.67574985074361    2.25177278014569
H        -0.83243507948173   19.36242926820675    1.77927906511483
C         0.96074883299658   18.14769228974997    1.74032100686516
H         1.66698196571005   18.96856764502262    1.88817597933580
H         0.87419428364993   17.96766032935931    0.66629619003912
C         1.47418977800197   16.89193997732279    2.43285577881695
H         2.46850827622104   16.63597068969851    2.06885741081614
H         0.81998231326246   16.05092480851958    2.17497051010552
C         1.46628613214966   17.01362371096798    3.93627438282568
C         1.21652757514500   11.27432998695316    3.37571394524285
H         1.76063934430391   10.94757700725850    2.48007491298008
H         0.81414723943150   12.27384014364288    3.19460815907921
H         0.38096533685692   10.58979847101467    3.57371007598196
C         4.97066491026590   12.03148502347380    6.69185765562370
H         5.62969027908556   11.98796690612014    7.57210636776471
H         4.79055620734053   13.07749580692828    6.44341289654281
H         5.48026646550459   11.56272961822506    5.84734421388666
C         3.01454680350141   12.01863960203961    8.06906414186168
H         2.00050259187818   11.62339947258499    8.16593090212362
H         2.94524873196311   13.08934096826835    7.88730422121633
H         3.55630727569768   11.86058109590084    9.01273618438629
C         3.90421920358609    9.94324861429605    7.25554366341276
H         3.09703562947337    9.59619716758570    7.90598669460077
H         4.85079815253133    9.78912871171696    7.79829938848034
C         3.92627377492783    9.09349627644286    5.98316964325573
H         4.77817054454175    9.39608924677378    5.36441828226223
H         4.07087224732646    8.03576717109333    6.26355184935859
C         2.90706922560706    8.50854907011375    3.92015107755747
H         3.12677008581611    7.44884336405032    4.11298990372946
H         3.73735914315762    8.94338820745598    3.36150241001922
H         2.00972464584339    8.57303907883595    3.30821449395225
C         1.54229495592763    8.69941670930713    5.86531664658368
H         0.69106099298265    8.69464671768049    5.18509857353025
H         1.28175022950785    9.32396003789087    6.72133433633210
H         1.72419866130217    7.66984954749485    6.20732157631997

