68
CSD_code = BERCAE | q = 0 | S = 0 | Stoichiometry = C29H32N2O4Pd | MND = 4
Pd        5.25487873045778    1.03613428708151    1.69352056114371
O         5.25752653071660   -0.20905169572950    3.32862687595891
O         4.56984221510390    1.75130208292859    4.08970567547872
O         3.19428744507441    2.80642756533053    6.04109698731478
H         3.71133593567596    2.40541875859799    5.26560500077259
O         3.54277773472694    3.73836345957154    8.02337120570482
N         7.37124961166503    1.79291311351463    2.07741158289485
N         5.28324102475728    2.37850174040300    0.09329404880144
C         8.26220677106758    0.65110192245496    2.26651572674019
H         8.00706473538947    0.14839454699192    3.20027756505169
H         9.31555300450440    0.96523870885692    2.31274375060833
H         8.13020466130454   -0.06156923893359    1.44742753828248
C         7.47370564725408    2.69079050822155    3.22126190067519
H         6.76049773468809    3.51051540552429    3.13496686409512
H         8.48975531126651    3.10307826623271    3.31566454916983
H         7.23499288907789    2.14384213274914    4.13066226813230
C         7.66483138786020    2.49706339930281    0.82757234955642
H         7.95713629570034    1.76361980907745    0.06980356956808
H         8.50307584041701    3.20205181960703    0.95519672039291
C         6.42960639046399    3.26454896231013    0.35121973422914
H         6.67631582277066    3.83870535596809   -0.55592590547587
H         6.13773205752666    3.97535206703489    1.12933817465025
C         5.43043020804503    1.73053211311543   -1.20852032924504
H         4.56640231710396    1.09902921746257   -1.40666683369305
H         6.31840622737620    1.09926223241515   -1.22165195720971
H         5.51278727507866    2.47739330934455   -2.01115305237274
C         4.05900661226421    3.18369404018349    0.10685815379577
H         3.20939421376876    2.57360609641343   -0.19341155386381
H         4.14131452133275    4.03454353196817   -0.58323946686600
H         3.87622002364621    3.55247843643212    1.11940575696827
C         3.42039829218759    0.21353323830396    1.26406240923425
H         2.67032226915889    0.78851804231836    1.82407221516432
H         3.41229328314087   -0.82086778319297    1.62445736454570
H         3.16055930170383    0.21275327666736    0.19921970935176
C         4.79587731693864    0.52395016297155    4.23420167418287
C         4.48524717871457   -0.11273156070243    5.55542191295852
C         3.66879615122130   -1.25838316925856    5.57472775016732
H         3.34013197094831   -1.66887282927989    4.63199184875628
C         3.30110299703244   -1.82149369308775    6.76155224627936
H         2.66777020364757   -2.69669962475069    6.78177919190858
C         3.73686464443868   -1.27124197699285    7.98562647150329
C         3.35957622200667   -1.82770342130009    9.22518421206357
H         2.71083237143939   -2.69228325402379    9.22667221071070
C         3.79899564828493   -1.28458735714965   10.39941448140465
H         3.50120712428839   -1.71445195962921   11.34471114145197
C         4.63998878745249   -0.16157955683950   10.38678062981352
H         4.97833612669967    0.25853362753982   11.32233547601664
C         5.02741415967728    0.40091419087903    9.20323162267900
H         5.66977667796552    1.26891171660681    9.19735420019949
C         4.58368527867941   -0.13162609729537    7.97415408398246
C         4.95001095348320    0.43986015731132    6.72870707144576
C         3.96778883060822    3.17609551403156    7.04558058279416
C         5.43476273766138    2.87973133403993    6.88446720040357
C         5.88409191499144    1.59046379620830    6.70316404372144
C         7.27275001867144    1.34670542966652    6.52954443238170
C         7.78135977787496    0.05034340927923    6.29671999723779
H         7.09460914586948   -0.78276633821582    6.27067637627861
C         9.11807971781647   -0.14979973013481    6.09104429376578
H         9.49437556705007   -1.14482206699720    5.90360207983297
C        10.01288268500533    0.93074789940696    6.12463693203606
H        11.06660527513362    0.75262755345398    5.96581526632120
C         9.55348645677474    2.19537314859914    6.36346579735004
H        10.23686096200388    3.03231093253919    6.39816238538392
C         8.17937644207481    2.44035072287189    6.56738117337525
C         7.68150792708951    3.74050781099569    6.79672350695789
H         8.37983052988184    4.56369348331818    6.84467898703045
C         6.34248700447884    3.95308029137054    6.95135937158472
H         5.94997887181737    4.94312272604206    7.12824218843258

