19
CSD_code = BERDEI | q = 0 | S = 0 | Stoichiometry = C4H10Cl2N2Pt | MND = 4
Pt       -2.25444317537949   -0.24911689558075   -0.83280976859010
Cl       -3.94819505232292    1.14412436098504   -1.25516157577522
Cl       -3.58131511826781   -1.97678850876659   -0.32755047721126
N        -0.83193783085181    1.25204574651524   -1.27858572113294
N        -0.51432186924098   -1.43030818679471   -0.47663069197431
C         0.53351307772035    0.69036225629173   -1.17847386027010
C         0.69210145289280    1.37693332563914    0.18836304930087
C        -0.56352559756344    2.18323661665305   -0.16416718160735
C         0.58128096090894   -0.83975904964138   -1.24850204887084
H        -1.09355957462448    1.69099963982026   -2.15965874628372
H        -0.32305064542687   -1.43176221574093    0.52356839027785
H        -0.71458092105347   -2.38994563157439   -0.75268297529255
H         1.21688420133798    1.10388216966776   -1.92878444699125
H         1.60729190096974    1.94381411365429    0.33300405860219
H         0.54589363242223    0.70856038065304    1.03307171583412
H        -0.34586371665478    3.19832560888065   -0.50230454232214
H        -1.36280435672525    2.21105485463849    0.57668699896682
H         1.56510355489135   -1.18355898032567   -0.90163487990236
H         0.45822907696792   -1.14159960497426   -2.29244729675774

