16
CSD_code = BERDAE | q = 0 | S = 0 | Stoichiometry = C3H8Cl2N2Pt | MND = 4
Pt       -1.74309508591693    2.42442132303878   -2.51436787506110
Cl       -1.70769399187187    4.24698365039722   -1.23262137970636
Cl       -1.10285046240670    1.05899977553922   -0.87259934922726
N        -2.36120607336665    3.49751299011174   -4.19965277949142
N        -1.85629211655260    0.79164355172333   -3.92160433550124
C        -2.80001399335743    2.63443824119453   -5.27682136909648
C        -1.54700710746836    3.41131099032583   -5.39506869016305
C        -2.81328367356370    1.13925710137238   -4.97457434701236
H        -2.86143956474818    4.36993604093800   -4.04982759582131
H        -2.13480321105414   -0.03772916159786   -3.40124743408040
H        -0.92126292096032    0.62605072407096   -4.28805698309061
H        -3.65133858960242    2.95885885868476   -5.86820165563323
H        -1.52362017172782    4.26864853911731   -6.05630043842511
H        -0.58900059185832    2.92203534264988   -5.27641956902773
H        -3.81672543456562    0.88259879122950   -4.62283263474762
H        -2.62356701097901    0.58353324120444   -5.90290356391472

