75
CSD_code = BERDEH | q = 0 | S = 0 | Stoichiometry = C38H30Br2O2P2W | MND = 6
W        -1.79985041164540    2.26913094694894    4.61106743580234
Br       -1.15446172896001    0.38239226392142    3.05433161699326
Br       -2.29462782324847    0.39892771001912    6.25591032585855
C        -0.50347413044311    3.46346398495516    3.73187910856272
O         0.32989474942262    4.07768139683094    3.20602295208651
C        -3.12148844102190    3.51590161283787    5.36953634913079
O        -3.94132082008198    4.22910237390018    5.78005806048632
P        -0.77763674899419    3.23306996385779    6.59834603015649
C         0.57960018363644    2.11663291696886    7.10204562952996
C         1.26871639787359    1.46491649919613    6.07916384466331
C         2.27283435470671    0.56416309314821    6.37768787920666
C         2.58828046582368    0.29668318406953    7.70083160188847
C         1.89952820518643    0.93301486321092    8.71926879392841
C         0.89522670150632    1.84006121304551    8.42690965329980
C        -1.61260639238702    3.62024070635089    8.17468045216079
C        -0.97586934631962    4.47771828856935    9.07314144832180
C        -1.57750031793663    4.79480612080140   10.27541383356720
C        -2.81852489949691    4.26423776856531   10.59277840334153
C        -3.45308115047211    3.41266336874550    9.70538713030329
C        -2.85443452282922    3.08899815041321    8.49988304813145
C         0.05207750452996    4.81783210666693    6.26644194362159
C         1.40815123547531    4.91138603794019    5.97569124711436
C         1.95667707257674    6.13496019676017    5.63331924248600
C         1.16037575498635    7.26629656954876    5.58077890159277
C        -0.19233698699988    7.17682304178616    5.87176458934690
C        -0.74845123415918    5.95751395094295    6.20644524117783
P        -2.83555533305613    3.14258561670226    2.58005560706376
C        -1.91673287470419    3.27207105509556    1.01168251093302
C        -1.74101710937771    2.14414541271008    0.21148827907264
C        -0.96406175922148    2.21908262933323   -0.92901777642390
C        -0.35312377059668    3.41187060056652   -1.27943159169691
C        -0.52309031212830    4.53447869061095   -0.48618151746440
C        -1.29741578244910    4.46801700081254    0.65727328445603
C        -3.56724956409589    4.80633999210141    2.73727276456281
C        -4.85095259647649    5.10499824624077    2.29584606186590
C        -5.35737100674773    6.38417993394852    2.44932566953060
C        -4.58975349423604    7.37456634889033    3.03671935072744
C        -3.31115330859662    7.08155063463601    3.48287009873080
C        -2.80453746902435    5.80408777662222    3.34161952269957
C        -4.25612967626310    2.09247857873696    2.12051558698418
C        -4.82251505614778    2.12374132485941    0.84758310640760
C        -5.89580927132653    1.30357370012598    0.55294478856651
C        -6.40995277742474    0.45131426497327    1.51809258621813
C        -5.85339615633298    0.42051136119954    2.78588330583470
C        -4.77980850935604    1.23966804297180    3.08595455199232
H         1.01214908222723    1.66310599369850    5.03837370501078
H         2.79654452833274    0.06044224151204    5.57907575977628
H         3.36260574303992   -0.41785664481910    7.93615889607339
H         2.13539043888276    0.71550974287255    9.75048072166097
H         0.34937270870931    2.31702859739466    9.22786600339700
H        -0.00840470375735    4.89429502352606    8.82364324483360
H        -1.07762228587241    5.45799431807425   10.96648352349730
H        -3.28800746533008    4.51602084560585   11.53211151236580
H        -4.41846789015348    2.99561153575358    9.94917918163052
H        -3.35703070132693    2.41687343967323    7.82086943832912
H         2.03317422757376    4.02983078625584    6.01854941387384
H         3.00991861105713    6.20322911326634    5.40484248490909
H         1.59276667609365    8.21877324863358    5.31273068251212
H        -0.81302466015269    8.06027004607095    5.83732236917619
H        -1.80457269442502    5.87802504350329    6.43115665647776
H        -2.20923110711107    1.20869302187659    0.48154560697119
H        -0.83147106981966    1.33978784477718   -1.54121750554260
H         0.25629099340724    3.46651433961806   -2.16926385471834
H        -0.04724558674846    5.46614000107392   -0.75507097096628
H        -1.42613109450608    5.34803506675501    1.27171741938437
H        -5.46246269147372    4.33848764556186    1.84248396896890
H        -6.35904638419227    6.60486697961240    2.11108651745067
H        -4.98922461079783    8.37066153443152    3.15538187814635
H        -2.70844190121919    7.84702928649959    3.94843579449940
H        -1.81583241943428    5.57278703271045    3.71777011740339
H        -4.41442746719381    2.78211810581132    0.09228401904919
H        -6.32986434876716    1.32553472690285   -0.43593193047512
H        -7.24273759041480   -0.19274626468241    1.27854653845408
H        -6.24744032403134   -0.24546471181718    3.53849594400881
H        -4.33799785577211    1.21192251904015    4.08321191081566

