69
CSD_code = BERHOX | q = 0 | S = 0 | Stoichiometry = C32H32Br2N2Ni | MND = 4
Br        0.07966287169299    3.09133770848312    9.38003720591983
N        -3.02131444982520    2.82917497693404    9.33314739741847
Ni       -1.70873476633896    3.82679397440933   10.45845965196855
N        -3.14621238012084    3.82694725693665   11.79162333278783
Br       -0.63811547719282    5.57851296820519   11.30279019689037
C        -5.38864469241484    2.67297250153842   11.97978025558344
C        -3.09737817299520    4.31255168335544   13.10809162714622
C        -2.86436183835835    2.43013111455838    8.00111338146360
C        -2.73742276811819    1.07640994748827    7.67248272040972
C        -4.10961495650869    2.64585520686233    9.99269330464191
C        -5.99155287706249    1.46609768869852    8.60115952883473
H        -5.49567366916115    1.43310456432529    7.64246509308232
C        -6.10841238458530    2.04782925555899   10.93084165515910
C        -4.14141365398924    3.12190427676111   11.37912596868152
C        -2.81433296844272    4.87169909176616    7.44170834992538
H        -2.17498730657422    5.04974407367605    8.32214685695157
H        -3.83391396589873    5.15474310700532    7.71104007157599
H        -2.47375486010977    5.52059805378337    6.63980757217569
C        -2.97086170554350    5.20954519650116   15.71055404310018
H        -2.93161575030133    5.55436957376211   16.73282715005933
C        -2.20916328609893    3.69763396790689   14.00179741888377
C        -4.71256905800506    6.17192817040698   12.48098204243062
H        -4.70189389527367    5.64190175330833   11.52233227943161
C        -2.55037666878656    0.74319960660895    6.34015061863370
H        -2.44533922585013   -0.29729236638522    6.07065766929248
C        -5.39545855676932    2.02446346968262    9.70584586969697
C        -5.94938892269291    2.72454260259602   13.23280666247133
H        -5.43225122552222    3.16972222391738   14.06951898874279
C        -2.48022598889771    1.72043340150037    5.36346840819352
H        -2.33491858707025    1.44008489365510    4.33142351793109
C        -2.56515354931647    3.05695744031948    5.71055336462665
H        -2.47796671939844    3.82094349456291    4.95262566089996
C        -2.74478696873378    3.43313954719458    7.03099459048301
C        -1.34588712783429    2.54895484965746   13.53031799507081
H        -1.17715559464804    2.66321914185065   12.43694574585900
C        -2.74140550019371    0.02885939354162    8.74455580110146
H        -2.38781096022916   -0.91806801552306    8.34596648110465
H        -3.74224576013497   -0.12323612108688    9.15273394362425
H        -2.08291409751757    0.32601206764163    9.56130368225658
C        -2.17464924314689    4.15225663768405   15.30940933838373
H        -1.51477374628709    3.68406934468152   16.02135996973839
C         0.03258342601310    2.53546410896601   14.18559533266038
H         0.49055489751141    3.51925578865727   14.11644129192359
H         0.67392102023933    1.82219686839692   13.67253419037945
H        -0.02763293828240    2.24284358436599   15.23115761944891
C        -7.38540204968267    1.50309067161326   11.09051309042292
C        -3.87692331879457    5.41203426790991   13.48482302930623
C        -7.28415617755140    0.92837442156531    8.74240604462739
H        -7.74900963153876    0.49038961848598    7.87146198202306
C        -7.93839226747342    1.58541897576940   12.38879780567497
H        -8.92253219452685    1.18000541702874   12.57186384485517
C        -3.79458440294964    5.84346974361271   14.80079546697691
H        -4.37996729262922    6.69287254416289   15.11660684183456
C        -7.22993454065302    2.16868039501784   13.41147759805230
H        -7.66813764188975    2.21222744501057   14.39775191776992
C        -2.07310744060236    1.22034705416123   13.75585545385784
H        -1.46709393513549    0.39312576370472   13.39237075798001
H        -3.03123992936470    1.19981120398860   13.23645225007744
H        -2.26001867148773    1.07214405657975   14.81796937618807
C        -7.96588535813506    0.93143715470582    9.93557422355402
H        -8.95240615014777    0.49641904880285    9.99874487759630
C        -6.17108737344395    6.29837474860243   12.92401028919991
H        -6.61454805245082    5.31707333531967   13.08681288061823
H        -6.74669754717599    6.81058418995207   12.15588427312902
H        -6.25128679424351    6.87028035471395   13.84441526929242
C        -4.08705179271479    7.55167139533637   12.25427914485368
H        -3.05060129569614    7.44869094168571   11.94082901479563
H        -4.10981578020650    8.13897822181166   13.16840450645317
H        -4.63445631272134    8.08939095575763   11.48312621380261

