97
CSD_code = BERJEP | q = 1 | S = 0 | Stoichiometry = C44H44AgF4N4(1+) | MND = 5
Ag        4.92169375301819    5.12100004584475    1.20807230170463
F         1.64561196246887    0.20955273290174    6.11988006345198
F         5.14764720308268   12.03332723299722   -2.66098143356330
F         5.94244763843014   12.86252781654546    1.88990800096251
F        -0.91134279481114    0.06586225305488    2.18499951996605
N         3.00175136965495    4.01488021775197    2.28878981908593
N         4.60913532001938    6.32176686657046    3.36454974031060
N         4.58547151871765    7.58526192263455    0.61372200121486
N         3.00425724710374    5.23982182415779   -0.43658077191220
C         3.43378914818167    4.73169170109237   -1.75305208344960
H         4.03568288018216    5.49410958926627   -2.24731559511499
H         2.55824715920854    4.54130568481374   -2.39094603475005
C         5.86593170668797    8.26238479001758    0.32293130762332
H         6.30464139182385    7.78329302646201   -0.55436639874315
H         6.53434126748660    8.08647632586274    1.16706749056857
C         3.93534922053112    8.15375671045630    1.79794682340027
H         2.90794257890265    7.79479436074527    1.81458001754869
H         3.89809653041572    9.25051423593235    1.73757945482024
C         3.29573296990800    5.92350695145873    3.88263740336414
H         2.53977871568841    6.53088471591824    3.38508104890922
H         3.22589504878820    6.13955491283263    4.95898693652364
C         2.94807240546498    4.44516525110247    3.68689976357684
H         3.65385396205502    3.84228859502249    4.24983951889748
H         1.94930855279348    4.27687047851354    4.11499939758784
C         1.78248274532047    4.41923927749495    1.58840386645006
H         1.54558980486040    5.43571767626480    1.90205542550874
H         0.93266616876936    3.78367821352905    1.87412529640065
C         3.25958072622569    2.56514988330877    2.19073259968745
H         4.24247501297460    2.37956801519214    2.62947763228005
H         3.31069530102235    2.30218641502700    1.13314037620719
C         5.76596725428321    9.74872846365959    0.06646157608686
C         2.55385333447865    6.62979888809911   -0.53198000180281
H         1.90158399152879    6.83072955576025    0.31733132976425
H         1.95526856703448    6.78282314208215   -1.44296922628115
C         5.51071412246207   10.23135060830162   -1.21154645438634
H         5.41428603047666    9.56928064040728   -2.05719099350006
C         5.39797704458345   11.59525768775221   -1.42005325039371
C         3.69199009276756    7.65603557338642   -0.54870509425876
H         4.29642451879886    7.49202017277997   -1.44187336918310
H         3.23829466055538    8.65367974020572   -0.63706299980334
C         4.23048120338614    3.46483369011588   -1.59196140038252
C         3.66830140897704    2.25244362755094   -1.90929074227517
H         2.67981481863932    2.21684533032217   -2.34584771955560
C         5.55080692634336    3.50277578597459   -1.06312780787056
C         6.24836263380777    4.71865332107031   -0.81593342886905
H         5.82164418387774    5.64922316724896   -1.16490594910732
C         2.24047964440783    1.68937649385090    2.87920362075773
C         6.59662928732827    3.99853076395781    3.17186027736891
H         6.94033101443496    4.69140407399568    2.40144736820282
C         5.98885007606557    4.49826675363863    4.30216510372893
C         5.91768858034886   10.65492509003400    1.11021474383325
H         6.14621114020287   10.32706746903796    2.11206267664191
C         6.24562966626057    2.27760533547232   -0.85541481505845
C         1.11265161622294    1.24524500721132    2.19868491370890
H         0.96029303764085    1.47073096980363    1.15472070241762
C         5.67771529538431    3.62223622867284    5.38038313743190
C         1.92416447058770    4.38563033217022    0.06824758576324
H         2.13858878469120    3.36317720491346   -0.24084826225345
H         0.96010370866303    4.67282316907231   -0.37746416041459
C         7.55636650078492    4.70509651200176   -0.38015117946542
H         8.10192621541596    5.63290114911493   -0.27354127867277
C         7.58139583500928    2.30699100137565   -0.39954722966712
H         8.10081148360462    1.36791888629865   -0.27491027676661
C         5.68241789130833    5.97294216419825    4.31503352473454
H         5.43161687020287    6.33064280981107    5.32016890632489
H         6.58930828181005    6.49500347919738    3.99646043135995
C         4.61823295931723    7.76760458857483    3.11113990671248
H         5.65575202461714    8.10013531507643    3.08188215817863
H         4.12330617482998    8.31237440059460    3.92846098723369
C         2.41214047136266    1.32660015695651    4.21020354932990
H         3.28747451339295    1.62179565838534    4.76697831035475
C         1.45484215786840    0.54861607472394    4.83649891186237
C         5.53131159958860   12.51493530798744   -0.39569602286053
H         5.44315119144684   13.57358833117608   -0.57325123576404
C         5.79816148458629   12.01197141421001    0.86452169461638
C         6.89499121670846    2.63331813337971    3.04048293751763
H         7.38879153426328    2.28060602259082    2.14882871309655
C         4.34948421076890    1.04636816994175   -1.68984114975188
H         3.86890017149878    0.11495621092455   -1.94581774422534
C         5.60658617983770    1.05657900225204   -1.15683046546301
H         6.13782175956958    0.13380622281620   -0.97974876047266
C         0.17244362499602    0.47310516526750    2.86017298440623
C         0.31423102690442    0.11110614695784    4.18727629108377
H        -0.42304956868275   -0.49413586246924    4.68769147564544
C         6.57374498743942    1.76786243498588    4.04715188116383
H         6.79149549800029    0.71401560823660    3.95942658772469
C         5.96856574727997    2.23456499048444    5.23255733482926
C         5.08169887232438    4.04070249788087    6.59280228795021
H         4.86018907484852    5.08401204532400    6.75271058327183
C         4.78021547333908    3.14786661594191    7.58326441272165
H         4.32786728612909    3.49244789671012    8.50038187259400
C         5.05452396359358    1.78159248170201    7.42436584362717
H         4.80065006266988    1.09106687657989    8.21287234377733
C         8.22198768632678    3.49087650315229   -0.15682962225787
H         9.24959489060073    3.49977327251398    0.17341351586124
C         5.64066017057122    1.33842967031350    6.27312528673942
H         5.86345684666324    0.29062663550833    6.13732138382772

