97
CSD_code = BERQIB | q = 0 | S = 0 | Stoichiometry = C36H54N3PRuS2 | MND = 6
Ru        4.24198394411987   31.79698941650744    4.21261697397248
S         2.49700524901796   31.57392171420551    2.53605851390160
S         5.73183304382872   32.37447875392806    6.04804404827808
P         5.11025582571872   29.59689092402762    4.21368978908736
N         3.61089107449142   33.93806284814418    4.17579393559921
N         2.73689479081249   31.65829346684826    5.85030268654750
N         5.37239561141928   32.17785037327025    2.77892169391948
C         5.90472733353550   32.51196242479091    1.80809203333730
C         6.60368908686191   32.87830083139183    0.60405883758379
H         7.63221057600893   33.15472955892521    0.83896475416992
H         6.10772523901231   33.72405584034811    0.12705348018859
H         6.60738437267340   32.03718863958773   -0.09034352223011
C         2.10221624501859   33.24808194922283    2.33332345105470
C         1.17207853033035   33.58519322642645    1.34351870070854
H         0.76289739140737   32.78590111036376    0.74425280946285
C         0.79271727013697   34.89157056361113    1.14328248622910
H         0.07605434242258   35.13410214646587    0.37244527396773
C         1.33033163058928   35.89499066728221    1.93685455125534
H         1.03697112923383   36.92399866236678    1.79360456726414
C         2.24656795206639   35.57272822655434    2.92064912116926
H         2.64736879903027   36.36702817514666    3.53420795756146
C         2.65130547248373   34.26032124636792    3.12809125519570
C         2.96300783118573   34.09811429654453    5.48591736127162
H         2.40638236905952   35.04585134103427    5.53438808950847
H         3.73403612663810   34.11473662195910    6.26342225311947
C         4.76324963550635   34.84583609990505    4.08673209528315
H         4.51127515725252   35.85481699678813    4.42760564194407
H         5.10402934611819   34.89886826348237    3.05322848649052
H         5.57445763715371   34.46700346247938    4.71123835335902
C         4.67359436929962   31.97314641672645    7.36537221969319
C         5.20612957832437   31.99996258127836    8.65829715903431
H         6.24038292943115   32.28764310449154    8.77070338381530
C         4.44042934141539   31.65966727496710    9.74883790500869
H         4.87085822817894   31.67659315963493   10.73898373910481
C         3.11609010866439   31.29007440015923    9.56840690311885
H         2.50276616911742   31.01592902621256   10.41352108113212
C         2.57222686647698   31.28193258002040    8.29660458413199
H         1.53292341434184   31.01023478289831    8.18812084092225
C         3.33217430410082   31.61232578364090    7.18163744518037
C         2.00730183811310   32.93853995416463    5.72298866018556
H         1.32020113296671   32.86422604533383    4.87186800803083
H         1.41295148651093   33.12618150296992    6.62967708509660
C         1.75389507287004   30.58176700563915    5.67190764434283
H         0.84675640553849   30.75303707971188    6.26073202327130
H         2.19152221365518   29.62901605665899    5.96245907650643
H         1.46896550989522   30.53686437487008    4.62059826784000
C         5.08973175452264   28.61585812393001    5.82694356319629
H         4.15823114580961   28.95672806090411    6.30241005691250
C         6.23214903252211   29.01967804889583    6.76136823754937
H         7.17013365248151   28.59567119375702    6.40122761320542
H         6.33671910209861   30.10287451219061    6.78532957311034
C         5.97267798662280   28.49067083857015    8.16850601391148
H         6.78015834097630   28.80350377180970    8.83384800247673
H         5.04316706455300   28.91606849153496    8.55472464221220
C         5.87447967700007   26.96912657839636    8.14289910392487
H         5.65383179296361   26.58746057810295    9.14200203183403
H         6.83393896794709   26.54979291887548    7.83001742486561
C         4.78892221529599   26.52911950393637    7.16685858950287
H         3.81913653594715   26.88393935171001    7.52560623128111
H         4.74781942934095   25.43806325332460    7.12226475479213
C         5.04079583649984   27.08675471415513    5.76415188588285
H         4.24515286306496   26.73318691326129    5.11010110298011
H         5.98741352070394   26.69640988319404    5.38865301576138
C         6.87291716585599   29.54903521870602    3.56222610843592
H         6.72189607999738   29.89131475734503    2.52898983108819
C         7.82310755543240   30.56575700132832    4.19615683628522
H         8.08939614934730   30.27104360996055    5.20963916037734
H         7.33722066532976   31.54167509321314    4.24919055612906
C         9.09629739830378   30.67160095516720    3.36043005715945
H         8.84486162968593   31.02043041706561    2.35547010226435
H         9.77099259671682   31.40278138243925    3.80996319478324
C         9.78668057257589   29.31478355275943    3.26532664132129
H        10.09583173197578   28.99713792814468    4.26366262782334
H        10.68390415548336   29.39077888960484    2.64676875523103
C         8.83567834416510   28.27794427171477    2.67679232378360
H         9.32492561507594   27.30146942731288    2.64098908236821
H         8.58101774814193   28.55995187715870    1.65190879362391
C         7.55657826601166   28.18171557939462    3.50840783745035
H         6.90244263566457   27.43088115402750    3.06463403494383
H         7.81993457539108   27.85428093101047    4.51447709093771
C         4.32626777638655   28.38872661570437    3.01121145327258
H         4.82461906614062   27.42124283483069    3.13961378295638
C         4.48365395577132   28.82999723231613    1.55587432086825
H         4.02648519300576   29.81498207890269    1.43605728210567
H         5.53699808651366   28.90335386349579    1.28260501933057
C         3.81656201675883   27.83077448682933    0.61214851774552
H         3.92946311532213   28.17389856572420   -0.41856153882557
H         4.31875362017737   26.86258000028742    0.69794987819221
C         2.33997900448195   27.66350501864518    0.94625983430524
H         1.87986939119441   26.94083021205558    0.26868923036912
H         1.83373188181120   28.62215535844994    0.82126311307584
C         2.19021618909157   27.20744700141972    2.39192885742630
H         1.13326985008516   27.10070034331826    2.64477342264948
H         2.66638485847243   26.23123127449178    2.52141395680364
C         2.83858292121356   28.22990284907161    3.31928505159928
H         2.68429735754795   27.93730251587525    4.35925199579863
H         2.35681193049447   29.19357198832850    3.15895923931335

