72
CSD_code = BERQAR | q = 0 | S = 0 | Stoichiometry = C30H38ClIrN2 | MND = 8
Ir        7.30069972459914    2.53931863317835    3.61107355070313
Cl        9.22731530054376    1.23789846057379    3.33364316785843
N         6.66610569580372   -1.30012863275377    2.40060224652276
N         6.76399965350396    2.08554130824700    1.71001730742104
C         7.78582943136405    3.63710367989318    0.12026347101994
C         5.37010718122053    3.59026029374145    0.43043624077263
C         9.13810017514758    3.07680801099981    0.41544872213583
H         9.33632129168862    3.08287534743368    1.48598336545849
H         9.91246208530275    3.64472658683505   -0.09350074565076
H         9.19933303929026    2.03669672300767    0.09681540269126
C         6.52635544488165    0.84545043611934    1.41760633402542
C         6.49513904856645   -0.05023615065567    2.57230305921072
C         6.65023065070852   -2.25278947883274    3.40098529750434
C         5.46584301642381   -2.63645724901800    4.04244691768168
C         8.86118463848426    2.97616748554597    6.53355275891219
H         8.34386802142781    2.22304874227856    7.12255958595128
H         9.17938714788193    3.77986130989937    7.20043487124432
H         9.74950546076978    2.52094638012240    6.10016240193799
C         7.97510813041381    3.52446239936114    5.45957491976979
C         7.31945653936748    4.88861113014017    3.71531086965517
C         7.85334608651516   -2.92491667122479    3.67135967646314
C         5.25208747775283    4.63556300391507   -0.47429178182802
H         4.27018354053171    5.02038349404342   -0.70900715252405
C         6.64745589769732    3.10328792051372    0.73650516121838
C         6.31254446691764    0.69744072028679    3.85039973241846
H         6.62703817363002    0.08357017201978    4.69782919209227
H         5.25033296176482    0.94216854179889    3.97619908531815
C         9.87462025558506    4.73919463764720    4.17246521580812
H        10.00321017124487    5.31509646595931    3.25907588605544
H        10.48119500994091    3.83653120565278    4.10280129436083
H        10.24767196028053    5.33028974964212    5.01042846219870
C         6.13745055327240    4.33980862156390    4.33826180320235
C         6.55148505107052    3.57033636044152    5.46987727481815
C         6.29765678114082    0.31400212754759    0.04770395266042
H         5.24219699891322    0.08234179629404   -0.09313436084868
H         6.84693079256618   -0.62104609877517   -0.04333086510477
H         6.61162942823425    1.02124727666546   -0.71587618993629
C         8.43977742847335    4.38978058066026    4.39458045456778
C         9.09881574396660   -2.48908349617893    2.96668285161766
H         9.93867658106682   -3.12685715447318    3.22959882926618
H         9.34096442937977   -1.45843813842868    3.22496127089600
H         8.94392186636271   -2.52156638876004    1.88887935327275
C         7.62482445118982    4.67745328167370   -0.78379207017946
H         8.49730798278219    5.09522922611534   -1.26435760701916
C         7.31328702867622    5.92040950084819    2.63459161661485
H         7.23203096687372    6.91582775547508    3.07614914055806
H         6.47213955375370    5.78182376576445    1.95854755079253
H         8.22720698302445    5.88325451135748    2.04601299331220
C         6.69331720560120   -4.32476171625782    5.24988980028899
H         6.70931764328912   -5.12722988867245    5.97271207172070
C         5.50796266317565   -3.67705821322763    4.95908234319679
H         4.59410142163919   -3.97722476423911    5.45302192428049
C         4.16307377082565   -1.95563887908717    3.73576967638941
H         4.01469352854737   -1.10071570013922    4.39756188370162
H         3.33258929483497   -2.64287905721892    3.88311968912423
H         4.14641301554266   -1.59615472064588    2.70881833334928
C         6.37074552417769    5.18111800677175   -1.07702991420602
H         6.26407885101189    5.99515723732004   -1.77799003107861
C         4.14761680193415    2.98412788701573    1.05241476642417
H         3.32642324767871    3.69715280739769    1.05532550321894
H         4.34671895241736    2.66144892628221    2.07189350440506
H         3.83052115785184    2.11143034434574    0.48094336448730
C         7.85869223395056   -3.94543107404511    4.60428652912795
H         8.78679249651940   -4.45279233916211    4.82613153760778
C         4.74292718429015    4.81488838135371    4.07951401432766
H         4.53733614944171    5.69826210850856    4.68790549257536
H         4.00929638989888    4.05378891264325    4.33823105741641
H         4.60892441207023    5.08809372258082    3.03560475729557
C         5.65519549735003    3.04087101556761    6.54463442904216
H         6.07726232380998    2.15205277748050    7.00735980975309
H         4.67144816928751    2.79107172684691    6.15368600491442
H         5.52881176470671    3.80082431435818    7.31827293773118

