41
CSD_code = BERTEY | q = 0 | S = 0 | Stoichiometry = C16H18I2N2OPtS | MND = 4
Pt        3.86190997694862    3.11013120211471    2.20443546426879
I         2.23841939203012    1.42666031021225    1.01799437811070
I         5.12464274665829    4.80807958075971    3.76255827976749
S         2.91444728909578    4.75394380733335    1.01643969882437
O         2.92811174870403    4.55404869309957   -0.41773227881013
N         4.60293435438813    1.57902496328754    3.28137584585444
N         6.00305661720530    2.40690327671743    1.01880182794568
C         3.93775979571789    1.17801154380316    4.35921800804532
C         4.39086159786465    0.10238663851547    5.13531756268515
H         3.82117425533628   -0.18911521528431    6.00303098893856
C         5.53361291052319   -0.56088946132535    4.78326882880057
H         5.89978601750417   -1.39302736730360    5.36512333918839
C         6.23954355669535   -0.15225487467483    3.64064228453239
C         5.73730511561635    0.94230369336819    2.89966839779823
C         7.42585952165367   -0.81880714605648    3.22955104162639
H         7.76984925481823   -1.64965371952144    3.82685135346017
C         8.09790113778178   -0.42655070467172    2.12286734895903
H         8.99667911238717   -0.93390263628944    1.80507776760126
C         7.63239235103448    0.66871415456379    1.34989106037362
C         6.45937564496440    1.36268508282222    1.72639603031540
C         6.64307122224015    2.81694964729554   -0.05461053880859
C         7.81101725419680    2.17487779373126   -0.50658078542544
H         8.30546698192068    2.53384337640745   -1.39583092625264
C         8.30182921093304    1.10699152039375    0.19365169104757
H         9.19802522573363    0.59321655242968   -0.12373963337592
C         2.66158978615663    1.85160685323021    4.74261548045353
H         2.65930415207721    2.90457981808879    4.45192198166951
H         2.50107959160446    1.77950850391362    5.81524436923346
H         1.83085238231800    1.35676541419981    4.23560214131476
C         6.10692635152291    4.00973796035677   -0.76700909782259
H         5.01867168382909    3.98303247694594   -0.79884188149136
H         6.49496389922803    4.06930298985079   -1.77993664468058
H         6.40441827544959    4.91128779124651   -0.22926673473750
C         3.42064434259507    6.49210211010168    1.24512638941141
H         4.48919279134315    6.57305774942855    1.07565774860444
H         3.17645060133718    6.82605768782523    2.24624159380874
H         2.88487389556053    7.06136930448463    0.49381764710416
C         1.17788184312801    4.97075458332764    1.52723144104689
H         0.62784373098826    4.06666508738114    1.28604695513728
H         0.76345211083870    5.80947636316462    0.97981011605843
H         1.15642227008081    5.15542459469443    2.59717145939518

