99
CSD_code = BERTAT | q = 0 | S = 0 | Stoichiometry = C40H44B2FeN8O4 | MND = 6
Fe        0.00012510736356   -0.00002662739408    0.00002496562298
O        -0.81833106707802   -1.06451651861768   -2.49768808044322
O         1.56431567835288    2.32356760724689    0.46584988965165
N        -0.07597996202675   -0.16267692822248   -1.85451774306916
N         0.94072108387988    1.55120244352735   -0.42614559642192
C         0.47959140905293    0.79529382777641   -2.52975354151803
C         1.13285625773757    1.76648053964646   -1.69012476235110
C         0.42796619957004    0.91513959488214   -4.02257356741140
C         1.94991125770950    2.89615975542828   -2.23863392692483
B        -0.95625400138179   -2.42178134480694   -1.84783843114171
C        -2.01463348820003   -3.26983529907282   -2.72216631607905
C        -2.75751643723542   -2.69205157224511   -3.74680979116261
C        -3.66696198490812   -3.42741228486354   -4.48674056411515
C        -3.85987231111855   -4.77012267385502   -4.21246315977141
C        -3.13425464076198   -5.36586193855063   -3.19505407921033
C        -2.22378112984349   -4.62216854603391   -2.46565335890040
C         0.49234083357769   -3.15436863490759   -1.79751671005367
C         0.86189990460708   -3.99735749630809   -0.75401085694327
C         2.07220394334810   -4.66813636115512   -0.75540446353872
C         2.95184015642750   -4.50930910816906   -1.81156680989160
C         2.60970304865727   -3.67072064875924   -2.85984410858194
C         1.39591357803632   -3.00849747683052   -2.84738753468029
N         1.73546376113975   -0.94728838532995    0.07703040743883
N         3.79226514234789   -1.55437902395042   -0.40771108123016
C         2.21274618105538   -1.72590789679059    1.08491516005556
C         3.48774476360196   -2.10870629220975    0.79761327108619
C         2.70871895252481   -0.86873289237997   -0.80442652454964
C         5.02203043012697   -1.71627391712096   -1.12681961070278
H         1.42855042417758    1.03020011452026   -4.43674555471578
H        -0.03399172800729    0.01944571706448   -4.43091020258850
H        -0.16159464639408    1.78098736963949   -4.32353304104918
H         2.32067598917833    3.49436140549006   -1.40985643660821
H         2.79793663404671    2.52295688297933   -2.81197650920756
H         1.34784500168501    3.52166141485618   -2.89658909579823
H        -2.61354800849929   -1.64336519771697   -3.96105084950010
H        -4.23020334666573   -2.95348534407809   -5.28003783210429
H        -4.57004889891917   -5.34858426261525   -4.78749866175570
H        -3.27844703178143   -6.41504267125564   -2.97388898011106
H        -1.65624245531985   -5.09847889858565   -1.67886932890029
H         0.18274956769862   -4.13680915401153    0.07514841962536
H         2.33003177510039   -5.32288572524275    0.06655174741899
H         3.89166931036483   -5.04646276003928   -1.82374936264154
H         3.28822477895623   -3.54502996521575   -3.69410637259563
H         1.12916856282140   -2.36943899237845   -3.67746286046750
H         1.62347154801546   -1.96312922689936    1.94348606799266
H         4.18332375023752   -2.71435201487999    1.34007527916548
H         2.66038892606480   -0.33529188670854   -1.72982801337361
H         5.11688088927670   -2.74490794429844   -1.48031918323064
H         5.86939895562676   -1.48171169263184   -0.48105402087867
H         5.02981275424932   -1.04686361841678   -1.98448596495750
N         0.07612605691637    0.16268807512573    1.85460904008310
N        -0.94045103536174   -1.55129832173286    0.42618234449951
N        -1.73529560097356    0.94717598310774   -0.07700079331182
B         0.95637511653584    2.42182596306262    1.84779757354869
O        -1.56401692026407   -2.32370302832308   -0.46578999265899
O         0.81824467793332    1.06466953471864    2.49782804835550
C        -0.47951696531111   -0.79525979601481    2.52981602991221
C        -1.13266582435977   -1.76650878334764    1.69016156932305
C        -2.21291819269821    1.72523052000083   -1.08516348723561
C        -2.70836622805856    0.86886794079376    0.80468068750645
C         2.01463410905109    3.26985129646761    2.72230982159712
C        -0.49212905147555    3.15460004745051    1.79726736795559
C        -0.42832320039031   -0.91494171222963    4.02265446356277
C        -1.94992915216394   -2.89604786363072    2.23865043023312
C        -3.48793008208613    2.10792891701187   -0.79780174470151
H        -1.62386290275141    1.96215240316220   -1.94396436873690
N        -3.79211743869704    1.55411397605482    0.40784387550651
H        -2.65975358525548    0.33591337289521    1.73034739493350
C         2.75785133573968    2.69181161771003    3.74657496339514
C         2.22333988720282    4.62237164216230    2.46641039556951
C        -0.86167002714253    3.99708931365201    0.75335373003344
C        -1.39573368631976    3.00918599026522    2.84717315505884
H        -1.42916354102874   -1.02849048508653    4.43662260163654
H         0.03475601663480   -0.01981901925743    4.43093077357153
H         0.15991108576784   -1.78157788535764    4.32388985425473
H        -2.31828749787980   -3.49591171641270    1.41000226244314
H        -2.79969788677148   -2.52265490804226    2.80929838971799
H        -1.34888727225085   -3.51986817433526    2.89910341774607
H        -4.18373373393403    2.71316610458887   -1.34043048000233
C        -5.02173339714168    1.71620394433541    1.12716189056923
C         3.66706593621296    3.42713289331659    4.48683013814532
H         2.61419394954272    1.64299993073463    3.96038623973421
C         3.13354345815485    5.36604336541873    3.19617007723143
H         1.65553871954079    5.09889261543066    1.67993318545299
C        -2.07198472547151    4.66784775885194    0.75439634977901
H        -0.18240563733504    4.13631220106475   -0.07575345415219
C        -2.60957399881520    3.67133040549444    2.85923932418424
H        -1.12909869792925    2.37031349428413    3.67742998149956
H        -5.11637278765233    2.74486045418128    1.48066228151261
H        -5.86923898596346    1.48175651285791    0.48153867068005
H        -5.02947092323977    1.04681500515214    1.98484728934181
C         3.85938935437334    4.77008210314677    4.21328250153798
H         4.23054275270204    2.95300504002397    5.27985201035446
H         3.27743514786658    6.41534854683748    2.97544642556501
C        -2.95167641541801    4.50944742318605    1.81057531137422
H        -2.32972883935361    5.32234653421538   -0.06778894647443
H        -3.28810544752715    3.54605734324910    3.69355815338591
H         4.56952555844690    5.34847259056916    4.78845810773909
H        -3.89145890008053    5.04668538268085    1.82253481986090

