42
CSD_code = BERTOI | q = 0 | S = 0 | Stoichiometry = C19H17I2N3Pt | MND = 4
Pt        4.64531163563100    2.73530959250560    2.21609617658787
I         5.79069836224767    3.39956735054440    4.51115221409638
I         3.46010639608421    2.39777596187652   -0.13447895925618
N         2.82980850404957    3.01194531664384    2.99442426257750
N         3.93094854981892    0.48392260920522    3.26776722412171
N         6.39315993231314    2.51012643469504    1.35068351528005
C         2.32571363645198    4.24127887322467    2.98340902302155
C         0.98788354316221    4.48681046667068    3.31802559740107
H         0.62258696017380    5.50140177513448    3.29956118577363
C         0.16103669972253    3.44346343763632    3.63635996844224
H        -0.88099342470483    3.60505088411900    3.86767647271464
C         0.68254165878591    2.14045311509174    3.66186360459200
C         2.05044240757277    1.96502992493384    3.35420715715539
C        -0.13091584460894    1.01955160086971    3.98311756541332
H        -1.17638835942414    1.19716112308215    4.18672916066482
C         0.38944845124321   -0.22832360989326    4.03489748929351
H        -0.22681463214552   -1.08137169331453    4.27802959839714
C         1.77244091959141   -0.44143493186222    3.79577572416396
C         2.61069431594891    0.64346522137749    3.45218029392743
C         4.48456299270205   -0.69332687607373    3.44794513710193
C         3.72134486825315   -1.83545416791013    3.75240353597680
H         4.21322702682380   -2.78970598472638    3.86300148207766
C         2.36821851801733   -1.70980168112080    3.91191664523081
H         1.75009273846435   -2.56411114037441    4.14888393085634
C         3.20995484519273    5.38540946003332    2.60661272701629
H         3.89703844100478    5.10280178105443    1.80185100450672
H         3.80525274908910    5.68642543462117    3.47094103336063
H         2.61785580636417    6.23707712638321    2.28174097842512
C         5.97178049918517   -0.78847440647944    3.35018260095143
H         6.40601710001616    0.20684699590163    3.30100679861702
H         6.26519569946303   -1.35692430998812    2.46806570975959
H         6.36617551716928   -1.30149294348899    4.22542378746640
C         7.26579219567649    3.51727623905684    1.26716049939162
H         6.98476334203409    4.45333688353887    1.73548162091667
C         8.48145931291661    3.39591639731104    0.62185511731478
H         9.14885423940757    4.24155298489563    0.58046789815322
C         8.81977786593489    2.18404063088895    0.04065289653255
H         9.76326055129787    2.05676572779659   -0.46659571442882
C         7.90837956753790    1.14217485988465    0.12149874746822
H         8.11674575208763    0.18236526924462   -0.32354807030066
C         6.70925218398067    1.34755397452557    0.77474274155790
H         5.96628847546186    0.56136429248107    0.83133161768342

