60
CSD_code = BERVEA | q = 0 | S = 0 | Stoichiometry = C14H38N6SiZr | MND = 6
Zr        3.98181127404150    1.21237974959954    0.34637656697734
Si        4.07741080794211   -0.07715179984475   -2.20882854550796
N         2.38885296669529    3.19046272182509    0.03144166712135
N         3.15226596646269    1.24511462734679   -1.61019972499587
N         4.92892000753443   -0.35157510988478   -0.73840473733262
N         5.52685308197557   -0.17004438816969    1.84660205131271
N         5.32578233050575    2.73767359124069    0.71280666749455
N         2.57143604389934    0.55728545360337    1.70629869839227
C         2.43699606797451    4.29323121381518    0.98276459383754
H         1.80647551332445    5.13765860757005    0.65663399421596
H         3.46280176693949    4.64311045611420    1.08423931283575
H         2.08301020171742    3.95322641717976    1.95639856438030
C         1.00524547835609    2.74590465201002   -0.12657852953904
H         0.58076825265066    2.51840408433690    0.85073331579593
H         0.99625090674227    1.84353219616447   -0.73968575792432
H         0.38807593075029    3.52634147371933   -0.60141684056992
C         2.91159488845970    3.64192364582164   -1.26294601761063
H         3.94121256527482    3.97561452316682   -1.10033810848805
H         2.31336576478718    4.48867540588679   -1.64934363728477
C         2.91150205486576    2.48236050440131   -2.28912686862070
H         1.93508444088584    2.47039929780578   -2.81496290020381
H         3.66979485828528    2.71197750901913   -3.06113893325594
C         2.99518657724272   -1.55431034597930   -2.82076805774110
H         2.24745290485044   -1.82551108645725   -2.08033820089525
H         3.61514477657147   -2.42757484937743   -2.99802179860489
H         2.47645540842414   -1.32826719091240   -3.74633717428627
C         5.23172863049681    0.33247849264601   -3.70113035637907
H         4.64584094897131    0.67579033186755   -4.54802470108402
H         5.80370552872388   -0.52986074578721   -4.02699409349383
H         5.93641381087952    1.11961351328971   -3.44669958599162
C         5.18049460422614   -1.62488321068806   -0.13412473744392
H         6.19101760683005   -2.00146849872989   -0.39273880644128
H         4.47142897941946   -2.40975725434656   -0.45750397301258
C         5.07565039912063   -1.49443899506764    1.40502169495908
H         4.02708836945739   -1.59730778968180    1.70137784542494
H         5.66975872970427   -2.28988678033618    1.89336306325628
C         6.93139623371429    0.01501477188086    1.48625947139586
H         7.55288365622968   -0.81103507886147    1.86937047816546
H         7.29808046979136    0.94804056584601    1.91280744352254
H         7.00990637711688    0.06319449501300    0.39916829841059
C         5.38108452591891   -0.06775154679886    3.29289646476486
H         4.34028574912937   -0.23097940405466    3.56699502382901
H         5.68000549557300    0.92789186790569    3.62209372283280
H         6.00513951473507   -0.81158227399612    3.81668782601852
C         6.31398032838373    2.92732841509573   -0.32777361144394
H         6.39287563845378    3.99380561816324   -0.63490527285607
H         6.03934989496794    2.32634364512991   -1.20418781311153
H         7.33431596989703    2.63287568612815   -0.00337027809739
C         5.71962169602965    3.43388931900511    1.91034604338244
H         6.71438550006720    3.11392159911129    2.29234137007829
H         4.98097907515963    3.27054029109346    2.70238334772372
H         5.80859755465478    4.52992564508839    1.74546558242226
C         2.08298005764970    1.09439721188958    2.95004808388480
H         1.07840676219445    1.56348776848570    2.85688912508762
H         2.77784386935897    1.84877096169005    3.33428397163439
H         1.96726322387536    0.30764339215421    3.72718721861817
C         1.64291618537660   -0.42145217446098    1.18176921541000
H         1.54977442076683   -1.30495697067660    1.85152908049167
H         1.98892255587734   -0.75954543396710    0.19660370305777
H         0.61432680010411   -0.01688879404624    1.07500555547790

