80
CSD_code = BERVOM | q = 0 | S = 0 | Stoichiometry = C33H42N4Ru | MND = 8
Ru        4.05927756403394    9.82258880347753    3.66829709353061
N         5.47245342663499    8.78029788981288    2.53321852361187
C         6.75733250975330    8.95546029877428    2.84612710081333
H         7.00947285162972    9.93736097232348    3.23710932230114
N         2.83450646773290    8.38157467617696    1.41815268891290
C         7.73189485418377    8.00067570427869    2.69112489701332
H         8.75667374989651    8.20989783380951    2.95081510782569
N         1.82785760164122   10.28744461880303    1.52624859217008
C         7.34363481792075    6.73590012556672    2.20756701674239
H         8.07426224962397    5.94425938482920    2.11692174041614
N         5.11836660621478   12.63578564115842    3.31062673056003
C         6.04859116050163    6.53068868268618    1.85705032253592
H         5.71155900365535    5.57707190412516    1.47891241677723
C         5.07846475130857    7.58315616565510    1.97287515519453
C         3.79828414064465    7.38041144574286    1.51822990198664
H         3.52022076045015    6.43829735667006    1.07542937505644
C         2.87733428453430    9.58326433999930    2.03159695176200
C         1.76188268601882    8.32169997582129    0.56745528796280
H         1.53686208613356    7.45004713706660   -0.01286392757866
C         1.13014641951556    9.52028981502612    0.63008974505424
H         0.26573571510271    9.88459954332915    0.11436968831450
C         1.62880995051332   11.68116599542681    1.67898200387950
C         0.52601148878470   12.16944644598848    2.37577069744474
C         0.36326272014562   13.54300021476637    2.48482184487193
H        -0.48230248906335   13.93038811852221    3.03561634677203
C         1.25070421280947   14.42672769386239    1.88989496077549
C         2.30914340881628   13.91234769476144    1.15288318548408
H         2.97622499877327   14.59350365746710    0.64250155087846
C         2.51556549587979   12.54746317542086    1.03287248771360
C        -0.49742570650836   11.23700918225600    2.94820176704003
H        -0.96297513771713   11.66821134916296    3.83086102797384
H        -0.04559325836313   10.28407166567927    3.20786635381665
H        -1.28089606366192   11.05015745339611    2.21225657918660
C         1.06091333917957   15.90654228140733    2.03886495417010
H         0.00997289893687   16.17181970814980    1.94506390295726
H         1.62919675399560   16.45051261170330    1.28848173258885
H         1.39913726246044   16.22974785490479    3.02391645063622
C         3.62061628862744   11.99702851124885    0.18480280799047
H         3.21393171002539   11.32901133366580   -0.57437563916020
H         4.31661580284849   11.41908858951713    0.79764107995396
H         4.16092378286479   12.79724753810597   -0.31326424002449
C         4.01093830742907   10.26925192368093    5.84792002188429
C         4.82126351408746    9.11948889677722    5.64794997680763
C         3.97520015220475    8.08141825737056    5.12075919031473
C         2.66508193191873    8.59472855323504    4.99019460498308
C         2.67174380559907    9.97155294298347    5.41132386435576
C         4.39130680250129   11.50273505734346    6.61460607809147
H         4.13852730307520   11.37009347761974    7.67007933860369
H         3.85379311411701   12.37293986546394    6.24148910806037
H         5.45987554308604   11.69699249896763    6.54508433823434
C         6.20127507241675    8.90706182154825    6.19991525595047
H         6.13833291580417    8.50496525148106    7.21502353935520
H         6.75776769497096    9.84230872840681    6.24040148501644
H         6.76773207902249    8.20211210896583    5.59304415195066
C         4.36310535773903    6.63646080515394    5.01110823109231
H         4.19400807942158    6.13807930933187    5.96983072829722
H         5.41550727419394    6.52490903979667    4.75453715777011
H         3.77569820475352    6.12127981406742    4.25266230605153
C         1.44753282579562    7.77476215299768    4.67249546734477
H         1.06020474011882    7.31780922668512    5.58707942121661
H         1.68382533567012    6.97502372302751    3.97196880645190
H         0.65500658584884    8.38172594646871    4.23685994218509
C         1.47254075796393   10.79435749540763    5.79906696808228
H         1.48682017972278   10.97489046816557    6.87672604752653
H         0.55023446635842   10.27149377535780    5.55983218173019
H         1.46415014581502   11.76059804071497    5.29483772864019
C         4.68612646883525   11.53951262767728    3.27386369057952
C         5.73608291244541   13.90110937307695    3.33021119605397
C         6.92268038907743   13.84867840275991    4.30134903962369
H         6.57926937159122   13.59480625155449    5.30135620023212
H         7.42036522674886   14.81456978172328    4.33691125579037
H         7.63820047637904   13.09559480001504    3.97922934357229
C         6.22545788790857   14.23631044870677    1.91693365301182
H         6.90465851762853   13.46477608546584    1.56211852290985
H         6.74526320235837   15.19117483117107    1.91880645736604
H         5.38244756432355   14.29366018093278    1.23488273984649
C         4.70475720140583   14.93376852307255    3.79950315404491
H         4.38161735098489   14.70781028329280    4.81302938273703
H         3.83464787039617   14.90894618358931    3.14848424611932
H         5.13760220380524   15.93087965539344    3.78291159225121

