81
CSD_code = BERXAA | q = 1 | S = 0 | Stoichiometry = C33H43N4Ru(1+) | MND = 8
Ru        3.82149298521473   11.11692891126793   15.63632433353255
N         5.56083594113502   10.02346909850926   15.88714680875575
C         6.36804917878067   10.27781870077744   16.92529456785476
H         6.16666532159399   11.19411632065648   17.46701763108780
N         4.69525251936796    9.78985807020033   13.17300934934682
C         7.40320758537873    9.44587212338563   17.30197023019452
H         8.01218682168691    9.69678872253667   18.15497162274388
N         4.34709461314195   11.82617548944320   12.60581843148533
C         7.64271658541099    8.29482142605414   16.56449534011404
H         8.44252086256730    7.62112819661415   16.82528810294942
C         6.82579399705138    8.03817632346409   15.47493314980546
H         6.98115487057539    7.15874674515933   14.86987912031318
N         4.98263034973951   13.83916082650442   16.33311774541031
C         5.79343683686533    8.91151338479954   15.16759148851652
C         4.87464710976682    8.62315254642098   13.99863274804848
H         5.29022620043702    7.81893708170165   13.38893150742799
H         3.89870279409395    8.29694195279370   14.38159435959752
C         4.29758586113785   10.98943950300459   13.65973764270133
C         4.98335433658667    9.87664304166013   11.83627711648690
H         5.30712025511365    9.03635454932778   11.25790364019630
C         4.75930881000726   11.16109040743536   11.47894997599117
H         4.85476527507000   11.65323645691302   10.53330693391463
C         4.17909485834770   13.23884185068842   12.64056093705052
C         2.94365301792537   13.80745431326424   12.34210278217236
C         2.84145114863332   15.18998601714081   12.33842220712403
H         1.88902588287968   15.64763482154794   12.11564671155947
C         3.94194403061760   15.99969170356507   12.58785529938565
C         5.16716583279498   15.40086948666146   12.85256997029630
H         6.03494229225789   16.02437191691794   13.01371998495881
C         5.30580622118013   14.02219856292555   12.89066766395168
C         1.77711324160889   12.94229737831309   11.98104256070249
H         1.78325220495519   12.02733966987110   12.56822206891281
H         1.83095782211404   12.66945219073645   10.92646418868723
H         0.84127929516839   13.46869018502759   12.14424939404547
C         3.79951648726662   17.48932319556215   12.56108757483779
H         4.75669002202890   17.97882443546727   12.71807820020886
H         3.10853175415247   17.81834324312598   13.33632406047061
H         3.39600118854781   17.81302600459533   11.60356863643793
C         6.62605970221314   13.36651320752141   13.16388443639037
H         7.39501909945168   14.10808886681711   13.35788295789238
H         6.93954170527993   12.76906302575228   12.30792724620894
H         6.54523567575646   12.70176966110257   14.02798775006249
C         2.57687999317546    9.45421572125866   16.55375478265222
C         1.80197337690677   10.05107533049836   15.53491819698844
C         1.64131725263450   11.45195431070758   15.85433814282377
C         2.25264150591187   11.66765877675166   17.14177239016952
C         2.88242512056679   10.46509714936412   17.54426184732946
C         2.78685082224557    7.98725491384075   16.79853612016993
H         2.19032318219676    7.68618229172157   17.66162381025523
H         3.82813947204060    7.74866236668138   17.02240615120839
H         2.46785599300405    7.38178201068772   15.95219962529233
C         1.06362496838049    9.34549633756998   14.43462395726449
H         0.00976561292993    9.26467876498283   14.70748346787417
H         1.44165723423694    8.33823904747404   14.27054383519787
H         1.12299088564456    9.88760231032537   13.49151036016166
C         0.60632235744020   12.37159784332783   15.26874690562847
H        -0.21094536484284   12.49447693623896   15.98210965581824
H         0.19291177852822   11.96409608950786   14.35084485183422
H         1.02083355028676   13.35614744242026   15.05695476523710
C         2.04368309146175   12.89169732875455   17.97798040541876
H         1.07469187961421   12.81752564671278   18.47609355709780
H         2.03991699740291   13.79061191213710   17.36480332948922
H         2.80942426592926   12.98595357290763   18.74433775314632
C         3.44786531248322   10.17276034735478   18.90293739036362
H         2.64956252085641    9.83774557158431   19.56856331930152
H         3.90036890618512   11.05962337467320   19.34296022197941
H         4.20051082463761    9.38642086568078   18.86222523199211
C         4.64135675637710   12.80930996915973   15.89558912193906
C         5.38444810899096   15.09008655145686   16.85178641122660
C         6.77928610346460   15.41765979259500   16.31353473341420
H         7.48383794877667   14.63039462890461   16.57200872715817
H         7.12724710572393   16.35171758923709   16.74525442704130
H         6.74970588522816   15.52005125414143   15.23352331578971
C         5.41726140982986   14.98595252220581   18.38017164165458
H         6.11863415626805   14.21650771230846   18.69527944376618
H         4.43178031246880   14.74352158406953   18.76944152009493
H         5.73149917691724   15.93511235428275   18.80454481971017
C         4.36816572398649   16.14163273330147   16.39926398785904
H         4.30216155745904   16.15560236962179   15.31429699030415
H         4.67365408889639   17.12323375074520   16.74980408659300
H         3.38373953186389   15.91891130957098   16.80381422091945

