118
CSD_code = BERYOO | q = 0 | S = 0 | Stoichiometry = C51H55Cl4N5O2Ru | MND = 6
Ru        4.80483213314133    5.52541969658754   15.55732459705012
Cl        6.33560152668415   11.44267226480645   14.48116216304447
Cl        1.55828701902308    9.76710845377468   12.69885102839222
Cl        2.83179934936098    1.02650826020998   12.32685640444525
Cl        8.18106496736389    0.97296922058231   11.84306433668708
O         4.45967354204714    5.00662134154913   17.50058362030395
O         6.58952217467025    6.11312620065107   16.31866536366061
N         4.09770082133606    7.23098441871361   16.29515810937167
N         5.80924105788730    3.84042710423147   15.33394431378983
N         3.02911028867317    5.04360584408190   14.79999748089183
N         3.97556388566124    6.06846237399280   12.96446365354152
N         4.99984694517987    6.11858498326691   13.76156857641086
C         4.40993125907976    6.03571020508760   18.27118973126148
C         4.43268698831352    5.97809420263077   19.69279341874513
C         4.39014941783718    7.16921512979056   20.37802424670588
H         4.44352158548127    7.14505034959537   21.45263673736493
C         4.26858150851609    8.43241172747845   19.76331107962541
C         4.17458571586737    8.49263763759789   18.39364219150154
H         4.03819394383441    9.42464497888138   17.87027637777053
C         4.26261504800357    7.31702930916845   17.63260401515118
C         4.50791408759570    4.62442813989462   20.38360877958253
C         3.28818256681232    3.79498988254090   19.95657025554796
H         2.36714132960061    4.31376990253519   20.21688038776573
H         3.29687749816751    2.82870419722370   20.45658120222439
H         3.30720305833965    3.62802089684650   18.88363483879571
C         5.79127377955512    3.89968979673751   19.95769905365739
H         5.81803652629981    3.76626460432196   18.88036590954866
H         5.83981764642004    2.91975292667122   20.42843058623877
H         6.67002861851275    4.46835644940518   20.25410244097624
C         4.50107060957624    4.73775917343895   21.91054491029086
H         5.36702755817529    5.29022532399473   22.26843389899711
H         4.53975143896762    3.74016518418774   22.34338996454177
H         3.59410801556932    5.22254167436045   22.26511220084403
C         4.23703139812097    9.66993718795001   20.64533880059922
C         4.10457409932568   10.96307328375614   19.83636892823147
H         4.93966982964674   11.08227213863753   19.15027989703890
H         4.10042076583790   11.81523128676729   20.51301723597610
H         3.17542379265472   10.97849388811292   19.27147730647117
C         3.04069649531032    9.58100516079870   21.60350253748964
H         2.11380920254156    9.50075279628457   21.03952384559289
H         2.99164785429927   10.47366278319697   22.22348422701236
H         3.11718530677706    8.71742764278454   22.25803401467217
C         5.54378140006036    9.74203898571184   21.44831971639651
H         5.66301916902537    8.87704437478438   22.09435808789894
H         5.55210892951540   10.63483821383177   22.06998322660244
H         6.39513113039165    9.78181650563478   20.77267140861758
C         4.03406895538171    8.34777188285958   15.48235547903754
C         2.93666266214615    8.51333872993533   14.63080545940338
H         2.11620385903659    7.81184855622407   14.66652897086652
C         2.90851609768816    9.58353033688558   13.75696308004889
C         3.94019386130855   10.50779967159120   13.70466494684144
H         3.90833468911241   11.33587658842167   13.01652406736277
C         5.02191701757027   10.32974862039391   14.55631294747051
C         5.08097039194392    9.27611933996956   15.44583899865770
H         5.94078797908045    9.13198480480535   16.08167600186304
C         7.23244140485419    5.07950334562290   16.75370122996801
C         8.36731177818269    5.14857654180290   17.60735016767965
C         8.96467258006577    3.96342271465083   17.97346024111863
H         9.80235830291565    3.99856968887498   18.64812644027108
C         8.54688149574664    2.69844043277088   17.52354090910486
C         7.49846915832875    2.63398829272855   16.63323220293941
H         7.13667485537055    1.69587141356738   16.24496560591338
C         6.83796048753185    3.80239481199441   16.23936899516800
C         8.87707393659572    6.50723202182417   18.06657118325852
C         9.27313326333791    7.31630787044358   16.82216585800098
H         8.41840019670869    7.44629022593098   16.16431220446469
H        10.05937366052451    6.80158550383156   16.27291382252768
H         9.64020636694805    8.29834664194084   17.11348369734226
C         7.77143461745887    7.24854907539863   18.82769092887224
H         8.12162101812459    8.23337008915655   19.13103236967638
H         7.48031105912607    6.69627286182053   19.71848649625238
H         6.89306667551185    7.37231820377418   18.20229812324744
C        10.10092511796920    6.40397133812493   18.98127466306724
H        10.93277783008157    5.91998172860637   18.47444353155202
H         9.86702264056559    5.85626250669104   19.89154892778474
H        10.41901018411439    7.40489188925085   19.26599420480880
C         9.27486073424303    1.46313306742802   18.02767823648963
C         9.14330952365784    1.39530354579802   19.55561725024589
H         9.58941896499138    2.26366267349154   20.03193423161967
H         9.63995948221663    0.50498631112635   19.93559750854361
H         8.09368884492963    1.35466808590363   19.83767468220174
C        10.75651563213663    1.55300571961732   17.63492259629423
H        10.85445040487356    1.62486928557471   16.55375251668044
H        11.28644476053961    0.66412405182904   17.97046071728761
H        11.23528026799221    2.42100387062610   18.07921917561952
C         8.70610068218286    0.16810360608927   17.44151875529623
H         7.66010609494386    0.04377321219584   17.71111016947973
H         9.25876233438237   -0.68200031104881   17.83638311023207
H         8.79846741061688    0.15417684854922   16.35797521885708
C         5.72567470352909    2.89481015617771   14.33851968377471
C         4.47609154853499    2.42871887958543   13.90999101807148
H         3.58325658236998    2.73221876598074   14.43130532756375
C         4.39066763826169    1.55550450816866   12.84517026542619
C         5.51815769631117    1.09066082999046   12.18662036448091
H         5.43910416137145    0.40718627665372   11.35819511164800
C         6.75416107727016    1.53472743422682   12.63525804952264
C         6.87569593332296    2.41994665496765   13.68594873709170
H         7.85038736099470    2.76699308563262   13.99260621734386
C         1.97905008083115    4.47663453842703   15.39613701591782
H         2.12876345910512    4.17390628830441   16.42567540999993
C         0.78022130652497    4.27677175035502   14.74852435019770
H        -0.04289358921818    3.81475074287202   15.26847747992596
C         0.65022058801143    4.67807513071079   13.41463177532200
H        -0.27836670665129    4.51946782401988   12.88898308951328
C         1.71491347416757    5.27876571773875   12.79063388504323
H         1.67661880855207    5.62212299649324   11.77081991436327
C         2.90672473874721    5.46319944278294   13.51146379945327
C         6.09587423329502    6.80953380449888   13.24589587627302
C         5.90019365295387    7.93352052211139   12.43987247028436
H         4.89058975380808    8.22328169152923   12.19477013064285
C         6.98506219431037    8.66292606575032   11.99734355001215
H         6.82660543207963    9.54357452989071   11.39354005190494
C         8.27189406729226    8.26943708399668   12.32929951063067
H         9.11868920143522    8.84613215478794   11.98934261423038
C         8.47120756723028    7.12628397157462   13.08788035696148
H         9.47403683330926    6.80334030146680   13.32340814707774
C         7.39337706677225    6.39373654307105   13.54555685549245
H         7.55043256939487    5.48655050808054   14.11052191109267

