45
CSD_code = BERZOQ | q = 0 | S = 0 | Stoichiometry = C18H22ClIrO3 | MND = 6
C         1.81046909042027    5.51054434019096    4.48354661764620
C         0.99112774440335    5.87968942904625    3.31290765955848
C        -1.18276427280179    6.34269381316408    2.56978240075698
H        -2.18233655237545    6.35053921905576    2.99699771110320
H        -0.95856198925609    7.30408329559281    2.10072154041731
H        -1.09151622179819    5.55666424295194    1.81737446670382
C         1.94148512455989    6.46624152457519    5.53325046000288
C         1.55381116710357    7.81579845984364    5.38668147647787
H         1.16080377379929    8.15406141819297    4.44035517384673
C         1.68189653130200    8.70510412199350    6.42125145015426
H         1.38640143782414    9.73697520038248    6.31190726320775
C         2.19922349171572    8.29673110409606    7.65873658626933
C         2.59603220405140    6.96715892588576    7.82211442370152
H         2.99276354525730    6.62187919478766    8.76397504869403
C         2.47336717222054    6.07982051700047    6.77862753920197
H         2.75890192513925    5.04550743273115    6.91067547851426
C         2.77648337182556    8.91462052194963    9.88297665744151
H         2.73478694315427    9.83117119840017   10.46889670262679
H         2.16277602602211    8.14826104531945   10.36546808833340
H         3.81317658997355    8.56971614344101    9.82408767901866
C         3.15941805838043    1.76399007553218    3.48734860734603
H         2.23413428225973    1.19451865491955    3.50648726072547
C         3.86226147978483    1.88392775340156    4.65581688560667
H         3.44233682396936    1.42519540715198    5.54641102761188
C         5.33727928869316    2.20109590553354    4.73358477131718
H         5.83457916017639    1.79563433115280    3.85167931919926
H         5.76056637287208    1.69217015186085    5.60179825104399
C         5.61889849650068    3.70969187913558    4.86457888989794
H         5.63379149257783    3.97677848543792    5.92317463092939
H         6.61110147857434    3.93964433618056    4.46165500357934
C         4.59261509742047    4.58846654777350    4.18457050311314
H         4.60405715641596    5.61129077396902    4.55912691782893
C         4.09880420554762    4.38314517599243    2.89424269968779
H         3.69437969799173    5.24369665514039    2.37018181057489
C         4.56906598805266    3.26949783348457    1.98505975770381
H         5.61217516612365    3.04002126114077    2.20707566710758
H         4.52849763803186    3.62026986746118    0.95270168808984
C         3.69767811979694    2.00659543421007    2.10116108112700
H         2.84581402962234    2.10866618735985    1.42626719182309
H         4.26510189872980    1.12755381522088    1.77614148677792
O         1.39378715063698    5.95346878576767    2.17003471210984
O        -0.29384653306587    6.09824122724843    3.64676415381344
O         2.27277601097719    9.25268358885049    8.61091583753809
Cl        0.85795086925045    2.72662439300940    5.39905732580355
Ir        2.60534946810213    3.74797032446998    4.36573009593799

