75
CSD_code = BESDOT | q = 0 | S = 0 | Stoichiometry = C27H43ClNP2Rh | MND = 4
P        -4.37500134692474   -3.37761049909793   24.99544706423934
P        -1.07214135036846   -0.70395549454460   23.82913146466768
C        -3.51468603732812   -0.26189165060648   22.63294196509455
C        -4.58386188005004    0.57066591376922   22.32323085146519
C        -4.39980678783970    1.93516432632110   22.17700152257243
C        -3.14514222698050    2.51221009824083   22.30795726042695
C        -2.09489784237122    1.69196833720528   22.69698427665215
C        -2.26978817818108    0.33236076367934   22.90099427496675
C        -2.94922118442217    3.98053890751165   22.08440220944553
C        -4.96003566144446   -2.22789044735102   22.56944513478540
C        -5.48791258054324   -3.02316644192986   23.58414360796608
C        -6.77038266299346   -3.53974124753510   23.45343230342425
C        -7.53218476797038   -3.31052014489725   22.31750625491254
C        -6.97250764854853   -2.56125258215038   21.28987089061202
C        -5.70220894693060   -2.02958658285369   21.40927311321668
C        -8.91357919796239   -3.87909956715291   22.20508209337062
C         0.54373663006698   -0.59391358894219   22.86684499125091
C         0.39950951586923   -0.35552829471811   21.36612698912413
C         1.29523261245643   -1.89657398296426   23.13634516281412
C        -0.70408591930621    0.45292742807694   25.24661664505028
C         0.39477788444076   -0.12828871343871   26.13030409423877
C        -1.99551417456465    0.60690301626124   26.04398979197347
C        -4.55297054113729   -5.23181263889433   25.09080927173974
C        -3.87435260205245   -5.76707989061423   23.83114822117928
C        -3.86200874273117   -5.77945052596175   26.33471698089490
C        -5.37558596302771   -2.68285788195334   26.40866619975959
C        -5.75174310977528   -1.25431332932257   26.01770851661492
C        -4.52403393594266   -2.66562319945102   27.67489070368542
C        -2.78293275455238   -2.35836064507478   21.69648928866287
Rh       -2.50888558160447   -2.34421652681877   24.38353408455527
N        -3.61999823559342   -1.69342305242987   22.70582414064101
Cl       -1.21444876689066   -3.24467924454683   26.02087172528125
H        -5.58138751868437    0.17360768226403   22.21937944833377
H        -5.25178608221065    2.55782995879254   21.94557730215143
H        -1.12251886961893    2.12969766659445   22.87539155368902
H        -1.93969272923521    4.28389472344471   22.34980932015343
H        -3.65552168579678    4.55552321169826   22.68121287097725
H        -3.12051223514649    4.22831766218640   21.03692014095241
H        -7.18555477668874   -4.13570989350164   24.25370402730998
H        -7.53534615733263   -2.39036764695636   20.38352650064028
H        -5.29397913944489   -1.45508001022994   20.58943196664150
H        -9.37479338457413   -3.60088016001264   21.26104469712821
H        -9.53969325018693   -3.51669839165342   23.01939557018070
H        -8.88164068337423   -4.96606515122064   22.26951467668700
H        -0.26029050985571    0.48304888586629   21.15243801987323
H         1.37752637539235   -0.13623630827710   20.93844060751562
H         0.01431242545645   -1.23789263157752   20.85793675885028
H         1.35297153135293   -2.09427701713391   24.20502842608233
H         2.30474439827152   -1.85870759731510   22.72897435622356
H         0.76813763411107   -2.73381064903660   22.67864570796221
H         1.35290041759786   -0.15692014613278   25.61492165945397
H         0.51190920047681    0.47899526818186   27.02697238269625
H         0.12523915046532   -1.13946264684619   26.43282361616069
H        -2.76404638113216    1.10956364604267   25.45634586740120
H        -1.82334190554272    1.18018931463699   26.95324716093011
H        -2.35619886616953   -0.38834988348336   26.32297406324037
H        -5.61289280052901   -5.51330435910910   25.09256663274998
H        -4.38825487737997   -5.42264882527332   22.93243456926174
H        -3.86381674208244   -6.85586007551210   23.82589015558394
H        -2.84031149104952   -5.41327568002972   23.80761167553945
H        -4.46057381101451   -5.60848706740010   27.22604565863206
H        -3.70504783674769   -6.85295232676598   26.23648529601887
H        -2.89266222286546   -5.29905361383611   26.46302933274497
H        -6.28061882098134   -3.28368129636482   26.56139257457883
H        -6.46431964022073   -1.23971992754822   25.19431240549159
H        -6.19228011921190   -0.72782414636201   26.86291875344688
H        -4.85397690263504   -0.71492658809437   25.70598450204250
H        -4.40731807535798   -3.65887106693251   28.09652272610898
H        -4.97726386781792   -2.02500813231979   28.43031196321781
H        -3.52930235343300   -2.28438643080397   27.44368786464499
H        -2.75341884205519   -3.43255980462319   21.90220759283208
H        -1.77083205863660   -1.95884483182931   21.71395846701287
H        -3.18671037914764   -2.21356781810146   20.68521218632704
H        -0.38767522512548    1.42756803199825   24.85244278505577
H         1.10430109332915    0.24619145475603   23.29479706216168

