101
CSD_code = BESGEM | q = 1 | S = 0 | Stoichiometry = C52H23F20O3P2Ru(1+) | MND = 8
Ru        7.24230973263377   11.12853782947105   11.77337742736445
P         7.30340855721419    9.43407575302296   10.18779268428033
P         5.76834198815163   10.13573997720836   13.23381486450635
O         7.55784313364330    7.93432947882243   10.62997379962990
O         4.37968467833375    9.56445870755145   12.74319818815875
F         7.63160417524123    7.33182982024755    8.04279977377710
F         6.06647020168484    6.77865141170940    5.91364017566631
F         3.87893994999557    8.31808433355560    5.38839085837720
F         3.26652970231020   10.40865236454115    7.04881643400347
F         4.80784793118793   10.88255839178576    9.22135637627273
F        10.13443056486658    8.19493109898790   10.61378412682023
F        12.29540929810836    8.41555202254815    9.04303246520714
F        12.23168009382457   10.00033743958914    6.82285323934667
F         9.95068348083957   11.39452957641098    6.22796369547538
F         7.77392169624278   11.14925700207126    7.82823165798483
F         3.14228194933557   11.79741974044272   13.11885865239868
F         2.27083189321180   13.65302978477258   14.82067322014178
F         3.72775549210269   14.29109444410756   17.04381321836727
F         6.11883170883065   13.03185271167261   17.48774119179829
F         7.00335275043241   11.17353444031112   15.74147548750298
F         4.09723039737374    8.97030535567690   15.42162765837730
F         4.77131579080142    7.15359299328514   17.33331910560299
F         7.31785595483668    6.18998745241487   17.44054831542062
F         9.16549383047262    7.02000019191482   15.61670203983889
F         8.43633714564220    8.78173429124084   13.66591408772253
C         8.84046904193084   11.56190736901763   13.32648245990977
C         9.47621883595689   11.14136713266553   12.13979509119916
C         9.18899168811635   12.11578493354169   11.12411544002996
C         8.37377040499768   13.10611481527629   11.69702943268572
C         8.10217750880581   12.74289354288210   13.04477576441722
C         7.07491011025329    7.16959161494605   11.67478018457533
C         8.01805235737586    6.34591017130217   12.31520920009151
C         7.61708018668724    5.50274690502048   13.30989652915999
C         6.27055464422415    5.47294400361312   13.73493540081624
C         5.85094808519973    4.64290397764249   14.79504148128503
C         4.54290906932405    4.62683368372698   15.19544183356778
C         3.59911561777944    5.43206521992854   14.54234363500521
C         3.97163200814873    6.23970717536362   13.50146343506046
C         5.31498730596702    6.29234380901110   13.07628491451912
C         5.73981459949456    7.13256966797529   12.00439924398042
C         4.71402441446647    7.78142535370381   11.15592983091607
C         4.06421200323983    8.92819101120840   11.55119514069093
C         2.95845701764361    9.43250658138054   10.84554334426885
C         2.49481353986772    8.76678003363925    9.74783626641925
C         3.12411482111230    7.58621146850465    9.29561411341585
C         2.64758186827667    6.88117679002735    8.17016286406528
C         3.26120053393714    5.73250683848860    7.75213673675152
C         4.37708607372313    5.24041553597731    8.44471392936107
C         4.86159574356599    5.89797615635550    9.54316248599719
C         4.25377795128898    7.08720854175849    9.99774811428017
C         6.23692364608650    9.11354221076616    8.69474786801799
C         6.54599906199107    8.07347550761076    7.82318960388218
C         5.75778527338071    7.79327409082271    6.71229553620283
C         4.63908105885865    8.57958904530094    6.44050624700191
C         4.32806388151378    9.64106784001281    7.28636906718385
C         5.12241296792051    9.87723119740166    8.39984279316051
C         8.86432294804143    9.59720736211280    9.20444590224681
C        10.04815706991391    8.93829216167018    9.51489023877978
C        11.18414964707635    9.06333140861286    8.71620185640514
C        11.15749953422772    9.87709616353617    7.58554125389362
C         9.99330452493428   10.58227662164184    7.27926082368936
C         8.88016826606620   10.43247972011497    8.09443358048926
C         5.08780889758470   11.39625457094172   14.40032804134807
C         3.88476307729912   12.06002723703769   14.19063988638013
C         3.42000234282964   13.03274102984448   15.07357071128375
C         4.16230539935707   13.36598834210330   16.20336652696495
C         5.37940558676674   12.72317658836548   16.42825335321658
C         5.81802286404191   11.76377204498672   15.52487997493006
C         6.26067114720135    8.90153027213446   14.51597441484956
C         5.33555793409898    8.47418744197390   15.46205467663030
C         5.67628001050199    7.55935496973902   16.45047229466976
C         6.97981071638625    7.06695607992067   16.50738467477017
C         7.92359919530584    7.48972201596897   15.57230154388945
C         7.54634403969060    8.39291337585741   14.58611602746923
O         5.37882446485941   12.21948746665777   11.35163557343802
C         5.07361835935515   13.10177826890620   10.55702362362535
C         3.76114734759453   13.80501936392154   10.66898794058011
C         5.93302878867065   13.51596934100915    9.41048146619467
H         8.97765560012114   11.12410561052382   14.30231534292732
H        10.20508753572594   10.34651616742453   12.07451731026140
H         9.67757108928910   12.18362229019177   10.16203175293369
H         8.08053901653709   14.03465503118441   11.22906203133422
H         7.63558394021314   13.38422936132277   13.77968328553039
H         9.04385305289959    6.39447021826664   11.99060412437413
H         8.33042177635017    4.84760501922228   13.78604715113996
H         6.58392577224158    4.01837934601373   15.28359148080714
H         4.22937271088875    3.99373902044654   16.01047037941009
H         2.56962200026058    5.40883229298324   14.86381688620983
H         3.23418596559680    6.84725301121806   12.99991569677594
H         2.48368708620485   10.32697598092845   11.21200066973802
H         1.62908446026575    9.13181991874772    9.21656637153856
H         1.78207990725194    7.26369148361329    7.64997881093402
H         2.88902731643031    5.19654243705738    6.89319830025145
H         4.85097911898781    4.33151492553789    8.10837520265348
H         5.71265195945305    5.50269175924775   10.07604438519425
H         3.85715808079831   14.85814210991306   10.41958716780684
H         3.08427329259065   13.35348655483028    9.94262129073045
H         3.32015554353602   13.68696013143816   11.65300087355401
H         5.34754238297509   13.51833128555507    8.49383851027716
H         6.28953596886362   14.53394261431136    9.56086864699894
H         6.78046084226359   12.84079274472533    9.29753321091847

