43
CSD_code = BESGUC | q = 0 | S = 0 | Stoichiometry = C24H16N2Pt | MND = 4
N         6.23655142970798    8.77535799372698    0.43775717258944
N         6.90777351029064    6.59476909173076    1.66573267644107
C         5.84906937257510    9.91841292840332   -0.11355116632689
H         5.29745067998282   10.58823654367522    0.53349090950200
C         6.12573700535439   10.24591331522417   -1.42926974553604
H         5.79171044829346   11.18617677524075   -1.83680090100598
C         6.83819237371751    9.33969545806024   -2.20347715203883
H         7.07283850162794    9.55874472666699   -3.23418488801480
C         7.24453136647546    8.14774436185562   -1.63313831834925
H         7.79844968031596    7.42880609899073   -2.21497898086136
C         6.93196998037306    7.88212439098867   -0.30092577040526
C         7.31630016511345    6.64873391751532    0.39341540606774
C         8.03803972561732    5.59056256580744   -0.15684425470403
H         8.37647364990333    5.61671293304083   -1.17964695476545
C         8.31545139894936    4.49377921845251    0.64414027910343
H         8.87318259972210    3.66216539763246    0.24020452658025
C         7.87913283013548    4.46166597776234    1.96047635889480
H         8.09413519247402    3.60876138400123    2.58306052781029
C         7.16166061217041    5.54464528958033    2.46336056515449
C         6.61504063714395    5.71279446471829    3.80813095715875
C         5.91941937301963    6.93045653421130    4.04590774910362
C         5.38590672700899    7.12508461027259    5.31699389863077
H         4.85112318423035    8.03934760415605    5.53102020639061
C         5.52740884562057    6.16878534763374    6.31132298113184
H         5.10354998385175    6.34469385573438    7.28982701357624
C         6.20809429587101    4.98735375451841    6.06196926929122
H         6.31472992352938    4.24600160729257    6.84074485752084
C         6.75158285893523    4.75808281977190    4.81299997820507
H         7.28160626490554    3.83538928466059    4.62308457528824
C         4.89815634336300    9.58151931533596    3.12872820432417
C         4.27052724612456   10.56931980984506    3.46588625851100
C         3.54405537562978   11.71328552937497    3.87299706575113
C         4.01569686053179   12.51983467579350    4.91159794881525
H         4.94062623151098   12.25520711148090    5.40368860137945
C         3.30717785878938   13.63985207554685    5.29912860490692
H         3.67917268964472   14.25883709124845    6.10377903931918
C         2.12101456652599   13.97287154594905    4.66386201242977
H         1.56864060737414   14.84933062723645    4.97093290341752
C         1.64504771485219   13.17653976557228    3.63420825039699
H         0.71911688348030   13.43329284738628    3.13824626984994
C         2.34836304169003   12.05645967602955    3.23714096596915
H         1.97884789705767   11.43114300889717    2.43644030611342
Pt        5.90984406651202    8.07270866897782    2.40814179238209

