69
CSD_code = BESHAL | q = 0 | S = 0 | Stoichiometry = C29H34N2O3Pd | MND = 4
Pd        2.92667600986468    8.20740814166759    5.41396311406980
O         3.96137406821169    9.07203555600752    3.75595776117955
O         2.51609854593348   10.12570427943374    6.30984180795701
O         2.56934346868755   11.00510592426576    8.34989966129842
N         2.61009404724248    5.31703366799350    4.75587566923875
N         4.29478048245022    6.21142499474426    3.74272100846163
C         3.28850131729529    6.47726394973783    4.60017154406064
C         3.00873129521126    8.65044037386291    8.13244989709330
C         1.37881383101022    5.21453184745975    5.45175522688507
C         2.67488742448895    9.98371392699877    7.50942755823479
C         2.29998333517095    7.59802435165290    7.25736205192193
H         1.21115079188259    7.69745986664733    7.38002084894097
H         2.58138419723092    6.60240273391185    7.61380314710852
C         4.97648516437358    8.51463664197836    3.20857723396498
C         4.29000586991936    4.86148313568931    3.41500416593356
C         4.53994509093585    8.48732239824976    8.01291014008773
H         4.85568184339808    8.56475760368728    6.95648819414461
H         4.82611460628311    7.50575635258938    8.38793234878099
H         5.05453791912282    9.24918144266197    8.59774665173996
C         1.27938358784870    4.38724955909354    6.57576985808811
C         5.95168139934577    9.31162922679755    2.56420707852456
H         5.81254373804521   10.38151499091725    2.61037300319699
C         5.33426060671261    4.31570577560236    2.62064811629449
H         5.32378003191585    3.25600330926280    2.42144766946676
C         5.18711395866659    7.10035767272749    3.14075617218685
C         3.20776623399973    4.31190495004129    4.04544544199303
H         2.83227790708686    3.31098036294363    4.02703066013589
C         2.59114536732912    8.58368968088065    9.60360469610329
H         3.10018023587338    9.34580363543237   10.18901737834587
H         2.84053887389651    7.60549974442475   10.00893199806567
H         1.51806587892550    8.73234408276517    9.70126972279093
C         0.06364109315785    4.32860617303805    7.24342494112045
H        -0.04017588635137    3.69419102687131    8.10966151541510
C         2.27991162312650   12.26973791895428    7.76477804073252
H         3.03164635641100   12.52069657764695    7.01385165841625
H         2.29309168024163   12.99030300823875    8.57834627130819
H         1.29875769950911   12.24898277600495    7.28635059617703
C         2.44393933167171    3.55293054159056    7.06141153474372
H         3.34692235213630    3.85533735423720    6.52318544236382
C        -1.01507936510721    5.08008674197220    6.82072737334672
H        -1.94830627759896    5.03509401231208    7.36252439306473
C         6.24273685972363    6.55449553864836    2.38420774318190
C         7.02517677215533    8.77084844125864    1.89297405012603
H         7.74591592708208    9.42803465454413    1.42662126882475
C        -0.90600878975874    5.87627008804499    5.69788862239310
H        -1.76334165119347    6.44177586183589    5.36725062953245
C         0.28313985374416    5.95330745820652    4.98283458218774
C         0.31595932102405    6.74403268095702    3.69064560485004
H         1.30743610917743    6.66413385222071    3.23089008990408
C         6.30511269648400    5.13622484793674    2.17240916174345
H         7.13077961215567    4.75172450568298    1.59243630363405
C         2.17646233709888    2.07226419434966    6.77230568426791
H         1.30843025592600    1.72699913371487    7.32880288564309
H         3.03485280769530    1.47127799193942    7.06366409799426
H         1.98393848498120    1.90921520432083    5.71442973129567
C         7.17615571904468    7.40198163467472    1.78421622532042
H         7.99093559961648    6.97605138361016    1.21903738555162
C         2.71211371147715    3.75142442349896    8.55490441754130
H         2.84309133193418    4.80609760671691    8.78343214243598
H         3.61962375185148    3.22267230889607    8.83815494334103
H         1.89477840925983    3.36851690486271    9.15979227743285
C        -0.69983857735364    6.15706827500429    2.70392294083610
H        -0.52245218306470    5.09310572158379    2.56056206403671
H        -0.60922053961171    6.65359255216829    1.74073214030695
H        -1.71759461974947    6.28876739023505    3.06173031325924
C         0.04522726273346    8.23487091409950    3.92661477058472
H        -0.90036996331814    8.38683550293815    4.44204087703263
H         0.00768072357054    8.75334847429815    2.97071062576005
H         0.86330304178198    8.67552614276909    4.53041682798427

