43
CSD_code = BESHAJ | q = 0 | S = 0 | Stoichiometry = C24H11F5N2Pt | MND = 4
Pt        6.91109401656597   -1.98196184980137    1.05560128067992
F         7.73119083296170    1.37647311923573   -2.63702173458506
F         9.02175431103554    3.39407864588481   -3.92270357527362
F        11.24485440270814    4.52217852777198   -2.80818832484049
F        12.16645686153955    3.62267046921851   -0.40475318088854
F        10.87919865431362    1.60767791980082    0.88173847566024
N         5.81508605366255   -3.43386648776426    1.69769615815016
N         5.48495420456502   -2.11350141166737   -0.51747809621339
C         8.00213730058152   -0.51706252114081    0.36179308512001
C         8.59398229629203    0.39109325726525   -0.19318588956448
C         9.27179372051792    1.43893857356119   -0.84404817425757
C         8.82399482683039    1.92476560322344   -2.07956303087436
C         9.47513159999082    2.95258495264371   -2.74214509490846
C        10.60880139050714    3.52941984456316   -2.17585258532940
C        11.07667011104659    3.06731084527942   -0.94818580217560
C        10.41428899911767    2.03762813217718   -0.29657441033555
C         5.38612464893924   -1.38085947733179   -1.61796358212381
H         6.14012089673574   -0.61635956402533   -1.75020238406254
C         4.38227751247543   -1.57196494151115   -2.55346968107640
H         4.33990390582857   -0.95262067630927   -3.43422450641045
C         3.44578291422850   -2.56962202416031   -2.32709746111201
H         2.64801078267222   -2.74915640333432   -3.03178577242515
C         3.54726160865377   -3.33608165331670   -1.17912014911187
H         2.82944740902141   -4.11596320939460   -0.98289562796502
C         4.58262073225729   -3.08911859032105   -0.28093125405040
C         4.77452520796407   -3.84449793215065    0.96606056527106
C         3.98290899872920   -4.90277026996102    1.40726223004777
H         3.14122449993924   -5.24988322476546    0.83124285636178
C         4.30271575612695   -5.50912561507322    2.61319389905675
H         3.70363837151956   -6.33144243348316    2.97428769757390
C         5.38635508733290   -5.06400728479144    3.35318458318894
H         5.63635409680660   -5.53452542314102    4.28967133995523
C         6.14784128755969   -4.00155681107585    2.86786738784960
C         7.32063220134549   -3.38394579155167    3.48335961445499
C         7.90811650979697   -2.31494819685995    2.75344858931280
C         9.02589361429519   -1.69612077538232    3.30312831648824
H         9.49717031692331   -0.88046304213644    2.77407679934054
C         9.54683956437334   -2.10951431801585    4.52110924252291
H        10.41559265385649   -1.61274091129358    4.92806583659504
C         8.96297987223785   -3.15372988291136    5.22057729878441
H         9.37390154069089   -3.47024901832454    6.16814452829004
C         7.85137455283274   -3.79204648351042    4.70455181206119
H         7.39959587461783   -4.60551366611990    5.25412872081544

