33
CSD_code = BESJEO | q = 0 | S = 0 | Stoichiometry = C8H18MoN2O2S2 | MND = 6
Mo       -2.16946636966839   -2.99425276556967   10.12292202285334
S        -0.36195992543787   -1.65126777604697    9.14238911585900
S        -3.07982665450851   -5.00791854512219   11.14492163816402
O        -3.33372983622571   -2.82053215715972    8.97760602763429
O        -2.24813414829869   -2.07509607040329   11.47941928278717
N        -1.21866204335823   -4.51372410329263    8.53904467054096
N        -0.17955893691618   -4.06752767171606   11.18844342686468
C         0.03824223860045   -2.55381031134491    7.59919556340801
C        -0.94827109091692   -3.67804106702065    7.35626820996973
C        -0.02579764237521   -5.24263760028197    9.00308510386426
C         0.72851019389749   -4.51970315613313   10.12851244753330
C        -0.55896378690687   -5.17513680132965   12.08072380668380
C        -1.97610172953775   -4.98221818201873   12.59387416577480
C        -2.24090157985047   -5.48173106885614    8.11582066453161
C         0.48575838076511   -3.03928440878679   11.99683188098918
H         1.06765265236765   -2.91185159996157    7.67338278619731
H        -0.01332551844285   -1.83461809994877    6.78065923525066
H        -1.90525220622126   -3.23331085405037    7.06451419174057
H        -0.58243290713304   -4.31118451784814    6.52889990495304
H        -0.35565382718845   -6.21767615423876    9.37481929900335
H         0.66791605787046   -5.42514478564689    8.17020178922449
H         1.49331895603131   -5.20178100860973   10.53278366501130
H         1.24166979611255   -3.63987655229966    9.73474682206701
H         0.14915133600875   -5.24827345549351   12.91924697330315
H        -0.53399366467990   -6.12162816805580   11.53153142990176
H        -2.26986151803693   -5.80126238052834   13.25127715306135
H        -2.10308793507409   -4.02557419545393   13.10461852176821
H        -2.49606459937834   -6.15415573912846    8.93487738630125
H        -1.88767854526075   -6.06861379102435    7.25849151354824
H        -3.14637274905885   -4.94249478875421    7.83790290931389
H         0.73727528112082   -2.17651446913352   11.38033668802976
H         1.40114638995853   -3.43705638126172   12.45403211319873
H        -0.19204406825783   -2.70020137347967   12.77751959066783

