65
CSD_code = BESLES | q = 1 | S = 0 | Stoichiometry = C26H30AgN6O2(1+) | MND = 2
Ag        0.41085666295287   14.36159788001307   -0.00073638461017
C         2.95113110869193   14.73141222630640    1.84663550877580
H         2.72412962349630   15.75900536373593    2.05824429925282
N         2.22845013139439   13.93858982486845    1.07265114633647
C         2.87007902154197   12.73171113534631    1.07345606975751
H         2.49854898758498   11.89260687795326    0.51819974017008
C         3.98120185927326   12.81991272953472    1.85671979758157
H         4.72831721199353   12.09249036080498    2.09645734500826
N         4.02101216452828   14.09400845796132    2.33402272839047
C         4.99166949782430   14.62614997059424    3.25770273119297
H         5.04337479533251   15.70916112914537    3.12174587478498
H         5.96904452671187   14.19745434953553    3.02239691503253
C         4.60855288710567   14.29980450253751    4.70244344740899
H         3.62011171906845   14.70665522287747    4.92450220437221
H         4.56526988102779   13.21762104247385    4.84064591887537
C         5.61092395052076   14.89467612467296    5.69595517679149
H         6.60797964169511   14.44675351254042    5.55518769339510
H         5.69162863796330   15.97400262025910    5.51955021728536
N         5.10840168057500   14.71022852469278    7.02246629386550
C         5.83915129102581   14.21942997441491    7.94149449585776
H         6.87839203285087   13.91908785907409    7.74860621432518
C         5.36525774829438   14.02553163982464    9.28865296099286
C         6.22915568517456   13.50122062219782   10.25775722110026
H         7.24228348500941   13.25545462090784    9.97270373171352
C         5.80657002039014   13.30186028131780   11.55173534184504
H         6.48357956088563   12.89945941296039   12.28880788294608
C         4.49972585924937   13.62276502502442   11.90514114256217
H         4.16450669146431   13.46649864527488   12.91910752355765
C         3.62797540990091   14.14024527334564   10.97153142025140
H         2.61289008534375   14.39476092490432   11.23242500810470
C         4.04193231136464   14.35247562796965    9.65617032323680
O         3.16803488861988   14.85814776803680    8.77745206042674
H         3.64010047265353   14.95777886919829    7.91636274389839
C        -2.13011034942845   13.99254932179834   -1.84760119579436
H        -1.90352257603172   12.96492275115307   -2.05948215284260
N        -1.40684189613317   14.78500567295465   -1.07379329242804
C        -2.04810524018200   15.99208170987449   -1.07408117937082
H        -1.67606209875783   16.83097369387697   -0.51884016837577
C        -3.15961256863919   15.90436016867738   -1.85685327183181
H        -3.90662591675618   16.63204857377367   -2.09609696265295
N        -3.20001670771898   14.63036757366116   -2.33439555081541
C        -4.17131855079757   14.09871013194684   -3.25768677604689
H        -4.22293814174674   13.01563277300583   -3.12226416001852
H        -5.14852824502646   14.52729575186379   -3.02147367750768
C        -3.78920926533796   14.42577886459722   -4.70252226837055
H        -2.80099345931707   14.01893021677881   -4.92557483914779
H        -3.74585671040248   15.50805191364846   -4.84004574668360
C        -4.79245771155627   13.83160789878254   -5.69555548269755
H        -5.78921660819676   14.27985977611069   -5.55367403973789
H        -4.87332980743288   12.75214138012749   -5.51989726417800
N        -4.29070831663471   14.01740221739499   -7.02216866137561
C        -5.02184466829358   14.50965121327780   -7.94015394005479
H        -6.06176051324841   14.80691188241742   -7.74709282649126
C        -4.54966063935872   14.70224326574971   -9.28812450879539
C        -5.41448090305206   15.22654529866330  -10.25638770456231
H        -6.42732652598676   15.47236638950951   -9.97032425923477
C        -4.99287863308208   15.42675896385968  -11.55055576710910
H        -5.67056516789236   15.82928655568028  -12.28695608185234
C        -3.68619747994283   15.10644649863634  -11.90508681303192
H        -3.35198030448016   15.26269016034626  -12.91938465923755
C        -2.81365702248650   14.58859134477844  -10.97242253371797
H        -1.79873003248753   14.33437600741680  -11.23422870236161
C        -3.22670099740277   14.37524981034416   -9.65694035947427
O        -2.35184528844814   13.86997327409654   -8.77895328350716
H        -2.82325718526938   13.76973054488559   -7.91757666519694

