82
CSD_code = BESMIX | q = 0 | S = 0 | Stoichiometry = C36H38BNO3P2W | MND = 5
C         4.13329315396348   25.31648668794299   -1.64954838455601
C         5.77190887596995   23.41871951721378   -0.54923160954288
C         1.65430973428190   27.30274980379990    0.59288241021506
C         2.08151525035794   27.97931788431625   -0.54600532007053
H         3.07890568185945   27.79090694096641   -0.92675319989076
C         1.24029791460866   28.86902061185908   -1.18708881707670
H         1.57535710889834   29.38602860446298   -2.07397936072519
C        -0.03458001602352   29.09048183136797   -0.69207034597961
H        -0.69737403437804   29.77912069347618   -1.19466711553670
C        -0.46069396772998   28.42791480407315    0.44735661008994
H        -1.45487297562116   28.60211392876818    0.83254148306062
C         0.38036343545983   27.54121472805572    1.09443379650461
H         0.03521739410225   27.02801945109493    1.97956904049856
C         3.40932669524348   27.28151012837869    2.75121269161561
C         4.70031664005800   27.79593405752178    2.71355693619799
H         5.34304743852063   27.55976177876532    1.87524111934621
C         5.16241128333561   28.60293914974556    3.73713009759835
H         6.16752391526648   28.99557769505137    3.70069885331422
C         4.33734432576660   28.89738034749581    4.80923406811234
H         4.69812990620176   29.52016630699329    5.61431850780750
C         3.04564071022221   28.39662500836520    4.84863031474443
H         2.40032149768516   28.63172859196622    5.68296686358588
C         2.57899167121982   27.59624685021597    3.82246047809325
H         1.56889875016862   27.21184279501840    3.85570800803589
C         1.99185475523403   24.78296217535505    2.15339459690120
H         1.02664406967544   25.07353593048903    2.58457682741864
C         2.91060163153281   24.27793653581519    3.27629958533870
H         2.54849892453827   23.32162920304033    3.66649139530049
H         2.94709761739746   24.99653661728209    4.10248225569933
C         0.85790706912102   24.11235811052842   -0.27903506835220
H         1.00473673871410   25.14907659183085   -0.62423974015887
C         1.10825472817512   23.22139937286854   -1.50504171696246
H         0.39816001533331   23.46581098078315   -2.30156543635645
H         2.11226656356770   23.45719180863073   -1.88080491641748
C         1.03248357430252   21.71871092569988   -1.22772007320524
H        -0.00922331581708   21.40625062159219   -1.19003472780784
H         1.47956576663811   21.18829366173479   -2.07468352294957
C         1.75347815479233   21.27754262384208    0.04840254814148
H         2.82982261319161   21.26902065180426   -0.15413611154445
H         1.45945534907695   20.24772442628258    0.27691213494096
C         1.53111708761545   22.17231627148176    1.27830568970392
H         2.17679441533395   21.75416736414120    2.06602415143101
C         0.09521435963437   22.11831086462664    1.82704011110858
H        -0.17975142797924   21.08272135442823    2.05279338799412
H         0.08527384049544   22.66660678500649    2.77401102923384
C        -0.97453438265593   22.71151865532213    0.90635924862782
H        -1.88286224834091   22.87579146078108    1.49584173086318
H        -1.23824353186932   21.98178561970687    0.14376386376086
C        -0.58796845683196   24.03497977281045    0.23849834853988
H        -1.28774652159925   24.22741364081593   -0.58106779132591
H        -0.71913051969742   24.84385796519749    0.96216039132672
C         4.98622886535366   22.32922840544697    3.04634487917190
C         5.14503123385560   21.95504361277736    4.37732574395081
H         5.08814703721629   22.70167974507947    5.15749044730881
C         5.38243002845475   20.63157000931560    4.69810836677066
H         5.50690814738825   20.34342638546338    5.73176853814356
C         5.46051525268832   19.67543069329795    3.69752994615908
H         5.64465591776771   18.64258378661555    3.95310941671228
C         5.30382191038674   20.04435481148705    2.37197414495464
H         5.36333701283639   19.30089420526798    1.59125637638522
C         5.06977789838149   21.36845687784753    2.04695882177972
H         4.94375331150959   21.66692873098217    1.01320866256398
C         5.74687046771592   24.94547015490746    3.71428726289959
C         7.01655012172526   25.17718241037085    3.18917036496018
H         7.24641097217649   24.81887576015137    2.19138194087417
C         7.96849783364958   25.85648625520840    3.92373580160854
H         8.94676063942071   26.03662906462012    3.50394251511364
C         7.65962882366546   26.31355254149255    5.19507482712792
H         8.39664582030570   26.85427817817027    5.76992100398027
C         6.40534372016553   26.07448327586854    5.72915020369703
H         6.16483387698155   26.42422793502832    6.72257414856227
C         5.45121946718095   25.38983128816711    4.99688179311155
H         4.47910596203673   25.21673622522374    5.43643009278982
N         5.92873788468215   25.85649625294914    0.13202044370513
O         6.88771175888630   26.52896033575606   -0.00912828156219
O         4.01853661745990   25.68097385053958   -2.72943870177579
O         6.60321949892695   22.78972847867898   -1.02954140369235
P         2.87266487030736   26.19799909501393    1.37615377652566
P         4.61852233468032   24.05684423328438    2.58853822207439
B         1.87656382012821   23.70556444130645    0.90508308575241
W         4.52378942751965   24.76287032630625    0.22185547067391
H         3.14681220752311   23.69955444456297    0.33200677297970

