102
CSD_code = BESTUP | q = 0 | S = 0 | Stoichiometry = C36H58NNiPS3Si2 | MND = 4
Ni        8.40500665306959   10.74435331834926    6.32948070520593
S         8.46871344025746   11.12738799203120    4.10628387541397
S         8.19419838464284   12.89785657095191    6.44786080459290
S         8.76960590385262   10.61349220997963    8.49867351977967
Si       11.25655824428675   10.73477856696098    2.39786991143790
Si        9.67369537139206   11.15096068012521   11.55403849499067
P         7.37423245797072    7.76281155550822    6.03884903457661
N         8.58856482431150    8.79572013410938    6.08275613781453
H         9.39763103822141    8.43877974746759    6.58655631801201
C         9.89092837400665   12.06342819706684    4.51891374142656
C        11.07233742037553   12.01913094412452    3.77816614272072
C        12.11635237137290   12.85027461019268    4.17626159354094
H        13.03786757580127   12.82946260589231    3.61444090802039
C        12.01449593178445   13.68606157966970    5.27216662437728
H        12.84375601592491   14.31493053780912    5.56074788914294
C        10.84271446373470   13.71660047308742    6.01794923639668
H        10.75692599124337   14.35131461200803    6.88823518572764
C         9.79921693394969   12.90706978074171    5.63181285704982
C        11.16726155752516    9.01911049944094    3.23544331429608
H        10.94071022747980    8.23891340052985    2.51492655222831
H        10.39331482883144    9.01352427103659    3.99819210041325
H        12.10804183702731    8.76572802554792    3.71689037464567
C        12.97428766836734   10.93071403529042    1.59310070252406
H        13.10202550190461   10.19645330126428    0.80488167523875
H        13.77799707858641   10.78462560186390    2.30723546010449
H        13.09800712462500   11.91178756492993    1.14647118816181
C         9.94758037107887   10.93105252984059    1.02471747586079
H        10.10261737363398   10.19991202818975    0.23665501896466
H         9.99946877006634   11.91773936723966    0.57360000818558
H         8.94428240081549   10.79899912618829    1.41444111770468
C         8.92389885583642   12.25981520948351    9.01329753769212
C         9.30523976365567   12.55601556285273   10.33152832100394
C         9.38506126158772   13.89141426455271   10.69529510408847
H         9.67987633005617   14.13668969760244   11.70423626034841
C         9.09251742109617   14.92155903521771    9.81304929938394
H         9.15720170992712   15.95057749840183   10.13385721776882
C         8.71588816723308   14.62361466218011    8.51627711420196
H         8.47487141670279   15.40270432714263    7.80711928843694
C         8.65390183004398   13.29850528551321    8.12609982896696
C        11.12589382952607   10.06999374107861   10.94818531715359
H        10.89036737613231    9.57634416395280   10.01200324773508
H        11.36590522385093    9.30225263727519   11.67775116814012
H        12.01970234307885   10.66698203459159   10.79087890567209
C         8.10156502393106   10.10640646634402   11.84666844780670
H         7.69925452602085    9.73582024274384   10.91062289550528
H         7.32717795001762   10.69275378345495   12.33288960734624
H         8.31564379277556    9.25067732422846   12.47972470178736
C        10.18388259395294   11.91689714915076   13.22405453120475
H        10.39434371878088   11.13232597102799   13.94302734086871
H         9.39796814374199   12.53741326540560   13.64186563754382
H        11.07861072813820   12.52425373692222   13.13493660368469
C         5.95309355093904    8.70547497187490    5.34165495299261
H         6.38433255385638    9.14480601575926    4.43010519927166
C         5.53923435003284    9.86312127627263    6.24906510190658
H         6.44113611179702   10.46755339855222    6.52069339676030
H         5.08805103373376    9.48935662614664    7.17118125837077
C         4.53653335897795   10.74814128527429    5.51526243066166
H         4.23943267992248   11.57999426294674    6.15593318446600
H         5.01428889282495   11.16258411679217    4.62571869209740
C         3.30827854894980    9.93505747213561    5.11397859289706
H         2.61038447448078   10.56530126101710    4.56048600290377
H         2.79715492420791    9.58215205255215    6.01322758708646
C         3.71140374187578    8.73679265118242    4.25925070801000
H         4.15622401051832    9.09145639315965    3.32729261604867
H         2.82881129507757    8.14482516602249    4.00768402880182
C         4.72579139895155    7.86583009321686    5.00006574589033
H         4.26888609468172    7.49279338381517    5.91982768432506
H         4.99532964882981    7.00734918422690    4.38191282521517
C         7.75909938686655    6.37013373913523    4.86619232415883
H         6.96305034157658    5.62113672159331    4.91403507641984
C         7.86475088419641    6.92909498399704    3.44846791340940
H         8.58329285161708    7.75022835026591    3.44608436889336
H         6.90346446797085    7.32924683448111    3.12380102896768
C         8.30305317344369    5.84378220268597    2.46687033801578
H         7.53066116417825    5.07143530927216    2.41361438094811
H         8.40848277730957    6.27886708719855    1.47157349517624
C         9.61895311544521    5.20610317028897    2.89847873246579
H         9.89812570897412    4.41688182940706    2.19774903717490
H        10.40830763101905    5.95946212097506    2.89011056389856
C         9.48816164923138    4.63416755903325    4.30530011181320
H        10.43523368715606    4.19152379129507    4.62020594062832
H         8.73118469360367    3.84558423142021    4.31145317630189
C         9.08633245855067    5.73672969967020    5.28059058530412
H         9.01433974697523    5.32713228489998    6.29107218765055
H         9.85798479196989    6.50994637123417    5.28017035046454
C         6.85127834622369    7.04757550804945    7.68670855701375
H         6.11918701324141    7.76838375158050    8.07280778464189
C         6.19494316993317    5.67231803428957    7.60333395350183
H         6.91834316685620    4.93684062638643    7.24609184676557
H         5.35610971529281    5.68793948703294    6.90507004195687
C         5.70781346136423    5.24892500659023    8.98848583754361
H         4.95205817980308    5.95496440894542    9.34020262165912
H         5.24248675111384    4.26281267655663    8.92883966634520
C         6.87081845365906    5.21950302522733    9.97565887265140
H         7.59956229414286    4.47151147343651    9.65413292171981
H         6.51055617979598    4.93019068529030   10.96446834626019
C         7.54284213523399    6.58763801550273   10.04633531724588
H         8.38865898268715    6.55601035659022   10.73471968674991
H         6.83088104495220    7.32192892032591   10.42815171976004
C         8.02437636032779    7.02496120518779    8.66562214517361
H         8.79495134482301    6.33354878953260    8.31588823056496
H         8.46212005828870    8.02291220516696    8.73338648608783

