81
CSD_code = BESTID | q = 0 | S = 0 | Stoichiometry = C27H46NNiPS3Si2 | MND = 4
Ni       11.79886613472045    3.28702044775574   -6.80266148476900
S        12.50680491541848    1.20462312136166   -7.25556920174759
S        10.64836007398014    2.24759488677228   -5.21910872412075
S        10.62632325939459    5.12532024802617   -6.50238372671237
Si       11.61218252805886    0.25969817364440  -10.28346400495998
Si        8.46813560758333    7.39085196543408   -5.71105617706333
P        14.44518161832048    4.41104398884745   -7.20315382747897
N        13.07366947327180    4.20069828123607   -8.00430892004074
H        12.67490216044995    5.06238531372538   -8.36821027332218
C        10.81232068775265    1.19893156056107   -7.72012758062467
C        10.35042807931901    0.71389681783439   -8.94327802717138
C         8.97389669637055    0.70274902862714   -9.15172601424508
H         8.59553351422866    0.32628791527474  -10.08991816644458
C         8.08273750407717    1.16734433457427   -8.20236464974525
H         7.01994301139035    1.14564845716367   -8.39338973815668
C         8.54596227013799    1.67551880305918   -6.99516168554724
H         7.85965599380593    2.05950978995344   -6.25372745555472
C         9.90443448783939    1.68597779607339   -6.76800840881362
C        12.55603828595006    1.86549115702084  -10.70098044245911
H        12.69294234454731    2.46634739079463   -9.80458221901085
H        12.00532461686514    2.46783404504614  -11.41845023651420
H        13.53540764691762    1.66025858269999  -11.12215966012054
C        12.76537579936404   -1.15642174954113   -9.72821874339128
H        13.52035348750502   -1.35695123275599  -10.48281685992316
H        12.20744852150255   -2.07488083261391   -9.56915609273080
H        13.27256495766932   -0.91493497923458   -8.80032287981217
C        10.67428726775237   -0.33678474812818  -11.83245851733810
H        10.01356947627968    0.42794067862627  -12.22713187729034
H        10.07918323789136   -1.22090455604026  -11.62857084017810
H        11.37964845947938   -0.59338398664293  -12.61545794804181
C         9.43992018103920    4.71672698147099   -5.30639300287242
C         8.47957780503375    5.66488715273763   -4.91962284709222
C         7.56550886253492    5.30047403061109   -3.94292913720333
H         6.82277545402976    6.02030369233493   -3.63489158546308
C         7.57593381093762    4.04915057813507   -3.34413706741288
H         6.85092969954045    3.80053491560174   -2.58368370996549
C         8.52287433879659    3.11852254887662   -3.72872893093873
H         8.56043894678158    2.13508200749955   -3.28312474500052
C         9.43658646973382    3.45702949307845   -4.71014550501746
C         8.14026632042297    7.27656998614511   -7.58705581139152
H         8.89980834921034    6.68668555937688   -8.08824318532125
H         8.13433393129241    8.26355430062489   -8.03980259255844
H         7.17776156108623    6.81490553906682   -7.78863170878643
C        10.10155246092088    8.30731450298202   -5.33220483713507
H        10.93928410229283    7.85111453624386   -5.84730461645103
H        10.32052904158987    8.29485822428149   -4.26832472533028
H        10.04221877305128    9.34517109838281   -5.64568471631282
C         7.05383342022270    8.40442107977025   -4.93077536075798
H         7.01876454383889    9.39380613807986   -5.37428934581553
H         7.18899437195615    8.53245946802020   -3.86181065238024
H         6.08573039238529    7.94226386883318   -5.09329960384740
C        15.50649273048324    2.95783479997582   -7.50622120174196
H        16.39405609064141    2.99355373862187   -6.87217413965152
H        14.89842971677956    2.09777447369112   -7.20875803876762
C        15.85885339957833    2.84323107145062   -8.98662274160899
H        16.65843987398728    3.54392577101388   -9.23983248228896
H        14.97458219084944    3.10905380502366   -9.56912034276602
C        16.28407167808887    1.42485966822989   -9.34276934600340
H        16.54231413615957    1.35719861714768  -10.39683297237626
H        15.46963549220342    0.73446935956966   -9.14025862339081
H        17.14986742192048    1.12346505979657   -8.75664390037511
C        15.31435407136236    5.92398591483826   -7.75503998373022
H        15.36336742364178    5.86810523064440   -8.84660691196573
H        14.67632389172659    6.77310672126979   -7.49244413832223
C        16.70574732179312    6.09233685330464   -7.15574917334446
H        16.63976778020439    6.08047935885571   -6.06640368672754
H        17.33954783247772    5.25803195458691   -7.46025240860831
C        17.34240499232815    7.40063700725049   -7.61011494163754
H        18.33721432324015    7.50780483347223   -7.18512510885539
H        16.74076500183477    8.24963664914994   -7.29332843406525
H        17.42778389488988    7.42734831336157   -8.69414018182569
C        14.23292016530566    4.45674659211168   -5.36795763978487
H        13.47504766411803    3.65968445309853   -5.19629498458389
H        15.15016766162383    4.18266105167138   -4.84522507006150
C        13.67799901878922    5.79585015971590   -4.88882543932091
H        14.47697985103149    6.53922239188523   -4.84149836442105
H        12.92693180176856    6.13944513302593   -5.60725105107689
C        13.01262346068678    5.66149740104359   -3.52530805356250
H        12.64165221698826    6.62550748007186   -3.18694810350474
H        13.71332589803544    5.27839223529414   -2.78618502314769
H        12.16922804315678    4.97690749991394   -3.59115944305484

