68
CSD_code = BETBOT | q = 0 | S = 0 | Stoichiometry = C36H27N2OPPd | MND = 4
Pd       12.48116616771346   12.47023736335554    2.58415418567498
P        10.91321734512048   12.43765196318525    4.19762672485539
O        12.49683828048256   14.63631712683720    2.51533087554416
N        13.65074878867131   12.77164730953924    1.04736228347864
N        13.93237596002059   14.06682210195012    0.81310252559518
C        12.83569652544203   10.48853728292146    2.52055214968810
C        12.60199346834322    9.72497742972338    3.64753487840686
H        12.29824213457993   10.19644474175359    4.57879287612479
C        12.71667466242304    8.32907551174027    3.65332525370401
H        12.50997783402744    7.78402372747961    4.56358645677944
C        13.05012563090504    7.67057335910600    2.50614695730406
H        13.09944880521184    6.59138236571171    2.47669349065548
C        13.73202780907436    7.70824478556053    0.16396467821867
H        13.74585455895734    6.62771635673815    0.18329040256615
C        14.08302264882214    8.38970199210531   -0.96871284240469
H        14.36843010523887    7.85984830005582   -1.86561589845802
C        14.10321799761491    9.78240407413871   -0.95369131059396
H        14.42815675184963   10.31400873478362   -1.83682860234097
C        13.73260163830335   10.50573445849231    0.16989079226862
C        13.29247978753121    9.81956369923118    1.34955052020999
C        13.35568451380298    8.39497453050583    1.33696759740257
C        13.88373550535300   11.93351277102211    0.09272650877041
H        14.28292407189670   12.33816464563982   -0.83733976726873
C        13.32435943356463   14.93455308937686    1.60066793936861
C        13.60672086438736   16.36271845895905    1.33089300937635
C        12.86785907027257   17.33567603511828    1.99832889720273
H        12.10479558249090   17.02112230104218    2.69559670655765
C        13.10730747102211   18.67528512663534    1.75919240599642
H        12.52966427382453   19.42810680196703    2.27647206538226
C        14.08603672452689   19.05356678064670    0.85455199973373
H        14.27249663937697   20.10131294124887    0.66701716264407
C        14.82518136895571   18.08802145951827    0.18864902423879
H        15.58783523519860   18.38583454810643   -0.51650163993279
C        14.58852493797665   16.74689251581011    0.42215964760406
H        15.15244727887073   15.98276350730631   -0.08904981400114
C         9.80634043130433   10.99232817010622    4.22955623195329
C         9.47050996890393   10.50763851505193    2.96687779723742
H         9.88614988501543   11.00335299703672    2.08959451871361
C         8.64997866882409    9.40452731767128    2.83893773035259
H         8.39290374119302    9.02938520281408    1.85955809584346
C         8.17048839829885    8.77026028278048    3.97512595014954
H         7.53453736776527    7.90273553017324    3.88026997563262
C         8.51349126526753    9.24078821937999    5.23132160255938
H         8.14517679199428    8.73881118476543    6.11409378877144
C         9.33001571468453   10.35147970679968    5.36393694836334
H         9.60752414674615   10.70413850290790    6.34633847002527
C         9.74816898150127   13.83763688526582    4.27492817657346
C         8.39335112985946   13.71617579488415    3.98993165496583
H         7.97631368317761   12.74971318653884    3.74090386107255
C         7.57854298005615   14.83517138930222    4.02679895671932
H         6.52486301348602   14.73740634482867    3.80801021792011
C         8.10908749430775   16.07494782364975    4.33968775646171
H         7.46996195651471   16.94537872893265    4.36319198973825
C         9.46215483207020   16.20033826257324    4.61687644138614
H         9.87695257350168   17.16935410270519    4.85480996481181
C        10.28011215968986   15.08836364462568    4.58400371029139
H        11.34050214031491   15.17696524154270    4.78117810525332
C        11.72266385862002   12.60349583044442    5.82109923438427
C        13.11631308482961   12.57311907453268    5.81818297361241
H        13.64435286791157   12.43090984566824    4.86509266784962
C        13.81621134976378   12.73625596704611    6.99997473480300
H        14.89585685931367   12.71402733245445    6.99783695860122
C        13.12849977377496   12.93544813193496    8.18679818061969
H        13.67336510750132   13.06012555093639    9.11076547584579
C        11.74364159465055   12.99265782591420    8.18959890846085
H        11.21291442292917   13.16756721392880    9.11406601448857
C        11.03838196323021   12.83665101081673    7.00973030344073
H         9.95970192123182   12.91562698461699    7.00433446273836

