45
CSD_code = BETDEK | q = 1 | S = 0 | Stoichiometry = C13H23N3O5Re(1+) | MND = 6
Re        4.19285932318561    5.69481287590232    8.78659395990765
O         1.87968277251014    7.58033671867286    9.60193286764197
O         2.27678754854554    3.28194392313107    8.52792237292863
O         4.76294107642550    4.94692662665424   11.73107692886488
O         7.53569357937330   -0.94544444983463   10.82742284410827
O         9.05174666832735    0.13625431796467   12.07833588257710
N         6.00320783459838    4.59667319708148    7.93043574202540
N         3.99847665966639    6.10543470514349    6.55372080117212
H         3.12671702445922    5.65713629665884    6.26428817860239
H         3.88208773105526    7.09070849976896    6.31427687708270
N         5.78438634292127    7.30315556896709    8.84857228452631
H         5.45977987808554    8.23365315569192    8.58109508495280
H         6.08279936153572    7.39401505981459    9.82265366722049
C         2.72216544968263    6.86717988376705    9.32444861407856
C         2.96358469493993    4.18489158119478    8.63481683579298
C         4.52760553869036    5.23426633807657   10.65297419507229
C         5.10733540015354    5.53103006707704    5.76519016332830
H         5.86182017909457    6.29731585235853    5.57926482257561
H         4.76201232052530    5.18485148912843    4.78535447658505
C         5.72398687688738    4.33746011599079    6.50144058324592
H         5.01444056654865    3.50571468129970    6.45772749944102
H         6.63501160862465    4.03973892320820    5.97019696055340
C         7.21161700071180    5.42926161088715    8.12436650329459
H         7.99215979843699    5.16384440398891    7.40269931121523
H         7.59186197114745    5.22125544305286    9.12876375573801
C         6.95455435827780    6.93827841830086    8.03150172653467
H         7.85870428321235    7.45818378720620    8.36895548210734
H         6.77728963224226    7.24833405912398    7.00080851667113
C         6.20382610077397    3.29194876178176    8.62095752071261
H         5.27863392505128    2.71684404404942    8.52697411140052
H         6.34732486956895    3.50460300696980    9.68257811863730
C         7.36552806433277    2.42672498388379    8.12421721849615
H         8.31029787346373    2.96952831829209    8.18567370840206
H         7.20207043973630    2.14268291227938    7.08392356087636
C         7.48497979587159    1.14276986813618    8.94846430720093
H         6.51364488420873    0.65294751701588    9.02596685592712
H         8.15026011910184    0.45523926625219    8.42464957584582
C         8.04080803113897    1.36674161197381   10.35254130196654
H         9.02444311745624    1.83697599981174   10.32569248834730
H         7.37688002968386    1.99681577030536   10.94884884106231
C         8.16140087312660    0.04403128756582   11.09121109456701
C         9.24735902892952   -1.03274394964998   12.86987625400482
H         8.34678242830097   -1.25276159848584   13.44536578856671
H        10.08013917577921   -0.81404013653724   13.53255040105290
H         9.47540576360978   -1.88702081392995   12.23057191508820

