50
CSD_code = BETDIO | q = 1 | S = 0 | Stoichiometry = C20H21N3O5Re(1+) | MND = 6
Re        2.78867877138705    7.41762407311461   10.50079907250928
O         0.80098407660481    9.78865214364265   10.44388773276421
O         3.49983707636540    7.86368623636921    7.52351391452959
O         0.66853605639643    5.29551885077357    9.74098016003148
O        -3.26220769818490    6.41266086394793   15.76803961791679
O        -2.71450100832939    6.16640570051872   17.91860250680192
H        -3.67196312586847    6.07970965145804   18.05379251004517
N         2.54325124664930    7.07525942838854   12.74412131396020
N         4.37800906752217    8.62510241781406   11.31468742507056
N         4.30096985535376    5.93311409088306   10.89058018738581
C         1.51351780748619    8.90030617985424   10.42714129630250
C         3.21263130445796    7.70256197900703    8.61593682990638
C         1.43123334357612    6.10389561985471    9.98945407090576
C         5.39148063636683    9.12454916386484   10.60584543699063
H         5.28696850099606    9.09336191249981    9.52975117125190
C         6.51967066435561    9.66917669862100   11.18958315494789
H         7.30742159708097   10.06580654562006   10.57100606311009
C         6.61048528866192    9.69190523258902   12.57333109614084
H         7.47756888271172   10.10184307316606   13.06616145366573
C         5.55637425056328    9.18202187857958   13.31173403087218
H         5.58043261909935    9.19213546203565   14.39011678524974
C         4.45210327432191    8.66289166105255   12.64961647006804
C         3.24269898230807    8.18806542975610   13.41064522266476
H         3.53026543241547    7.92675920562751   14.43673812605485
H         2.54967826251556    9.03764611886123   13.46303350874642
C         3.20549476997414    5.79465450448967   13.05009684010893
H         2.47749550639408    4.99051610432551   12.88248782528985
H         3.52183458185822    5.74564932674325   14.09957689559405
C         4.37999116294348    5.50250468506903   12.15418524094534
C         5.45401280022677    4.75011971877194   12.61047441238674
H         5.48358091804471    4.42482992364735   13.63855207858670
C         6.46984409376754    4.41737109010120   11.73111770405485
H         7.31241829748106    3.83189246721826   12.06279959030780
C         6.37196352637049    4.84716920173606   10.41605055212039
H         7.12908451017356    4.60213852065124    9.68998745470636
C         5.27719856226713    5.60369054736497   10.04323049335770
H         5.16846572440808    5.95328014193910    9.02550668383329
C         1.12596659173612    7.03058191137334   13.18040128959411
H         0.63121591514543    6.23347498227080   12.61816411178767
H         0.65577333052120    7.97240411061236   12.88379481252345
C         0.87869914496017    6.80410817068928   14.67393360742392
H         1.30629443561428    7.61642134284132   15.26500011021910
H         1.33228018866883    5.86703015840121   15.00298421959203
C        -0.62492246431480    6.73902936616795   14.93755981631660
H        -1.09801510899294    7.67175708050154   14.62739305188584
H        -1.07159060153386    5.93917443030695   14.34492316254771
C        -0.93806726754970    6.49021978716765   16.40898516220210
H        -0.46969871786507    5.56930466095402   16.76305796026855
H        -0.57631031814186    7.30547403043634   17.03840721824538
C        -2.43003474697047    6.35824411831960   16.62943054820408

