28
CSD_code = BETHIR | q = 0 | S = 0 | Stoichiometry = C6H13NNiO7 | MND = 6
Ni        0.41913255834744    0.36537110630381    2.28931141747831
O         1.14970504322674   -0.78618183522853    3.45807130371473
O         2.63070534968697   -1.33806817582653    4.98413018278399
O         1.49049665009971   -0.11953016580439    0.68415977127848
O         3.07255011668393    0.40273670340160   -0.76685096779589
O         0.18890117640584    1.97929654029949    3.91908462926543
O        -1.50929602542484   -0.62795240878935    2.93275757883375
O        -0.60840597639652    1.52599859623457    1.01545911759701
N         2.58446013769476    1.35713911683399    2.65108082292160
C         3.29821918802816    0.25542339552535    3.30523385383373
C         2.31402792047956   -0.70256808007085    4.00007468973383
C         3.08874206119496    1.59613123593161    1.31075053389074
C         2.52592540090281    0.52143842616267    0.31031636929109
C         2.48031858700789    2.53067414605947    3.50440497836704
C         1.41368600566500    2.29333963623321    4.57847586113086
H         3.80288623628084   -0.34854712387155    2.54699621473245
H         4.04775205603091    0.61097912668342    4.02295957230432
H         4.18364544715025    1.57656113079542    1.24822293941178
H         2.74622575302612    2.56871138255325    0.94508469720913
H         2.16938740925173    3.38184464030044    2.89376999416698
H         3.43429354060462    2.77720094340213    3.99557318077455
H         1.28006329971006    3.20292527215487    5.17793225812078
H         1.72288391816345    1.47248815825496    5.23297820750632
H        -0.42186203299511    1.58793093726408    4.55403165693540
H        -1.79064182913566   -1.07210655246125    2.12452124608705
H        -1.10802593653777   -1.30338193758406    3.49651553676931
H        -0.25154908620927    1.30367273992536    0.14352420991920
H        -0.46702696894232    2.46557304531683    1.16933014373810

