51
CSD_code = BETKUI | q = 0 | S = 0 | Stoichiometry = C17H29Cl2PRuSi | MND = 9
Ru        9.31582630337752    1.32788387637472    5.62185806714563
C         8.74732915949632    3.43161249968572    6.34652172988390
C         9.78783251032081    3.51603092870004    5.37683201029137
H         9.67567276882232    4.19553126281232    4.53788033538493
C        11.00210867909669    2.83412159372993    5.56115653899733
H        11.81413159992993    2.96754505037486    4.85531327900130
C        11.21077383290757    2.05909237362014    6.73130766821074
H        12.17145542652330    1.58577154869123    6.89855563814432
C        10.18750292049063    1.93720568050825    7.66845893925333
H        10.33952875707225    1.36444798719625    8.57620639516850
C         8.94745536015208    2.59720348091218    7.45987883840806
H         8.17791629229172    2.53193880308807    8.22137076646453
C         7.48872315264902    4.20987372760192    6.18918580801305
H         7.67359142294987    5.08807282810311    5.56909653223899
H         7.15335532860855    4.56231360347495    7.16477851968773
Si        6.06667840184452    3.15838078256017    5.40618584443529
C         4.65788956199174    4.38723015207777    5.04458207476353
H         3.80815030367094    3.87696146205883    4.60672422847666
H         4.95629983681885    5.17463918656350    4.36092148933819
H         4.31694089032249    4.85802367259991    5.95893289941979
C         5.50216690992921    1.78525560470123    6.58500535213167
H         5.19955319791718    2.19035065569877    7.54712383309733
H         6.29658281159612    1.05861176015564    6.76034760862647
H         4.64955964843635    1.24644505823990    6.18098887834090
C         6.70416998112594    2.51554274186708    3.72099226447765
H         5.87818797803908    2.17889004983942    3.09532530275884
H         7.21504107109382    3.32459251033312    3.19656538376043
P         7.89314519680277    1.12641297669559    3.85303916263996
C         6.83207573118164   -0.35316306372684    3.82467593382156
H         6.23555111356261   -0.38193659217653    4.73391913869377
H         7.49243755392244   -1.22240931106196    3.81910662177755
H         6.18862571795244   -0.35431724559270    2.94605585007797
C         8.68727737436721    1.05309438993693    2.17462664624410
H         9.14291081807744    0.05474931613402    2.14249697912421
C         7.71912910238785    1.20830469552882    1.00334483551713
H         7.27123694926578    2.20433543667441    1.01654175724469
H         6.91572977314836    0.47244364925824    1.06223111300721
C         8.47429717687508    1.02531200210435   -0.31238457716177
H         8.89737400781434    0.01962079570576   -0.34854989385720
H         7.78203630849364    1.13023202005123   -1.15094072269347
C         9.59735738839506    2.05031038746448   -0.43220517130328
H         9.16959582548796    3.05616141473302   -0.45001101185051
H        10.13831118961063    1.90167208580375   -1.36869186117271
C        10.55558313729202    1.92484436084141    0.74798691632655
H        11.03007687528757    0.94238979229992    0.73011924107676
H        11.34164998620954    2.67932891867069    0.67235812600935
C         9.80759513905587    2.08552771958573    2.06788923879532
H         9.39019055606791    3.09530567517769    2.12935406296632
H        10.49944393425844    1.93705177125850    2.90019665462581
Cl       10.53494161341632   -0.32606867190835    4.46322939227259
Cl        8.20420342358976   -0.46197140502545    6.65971534189436

