53
CSD_code = BETLIX | q = 0 | S = 0 | Stoichiometry = C18H31Cl2PRu | MND = 9
Ru        5.36318519432664   12.36854461085528   11.77895145155600
P         5.74142286986127   10.20415433061850   12.32271979332237
Cl        7.30224404524401   12.78879119434642   10.52294130080494
Cl        4.31167145744481   11.68388771414150    9.78752668791947
C         5.08313023460873   12.62664003081818   13.88369208582219
C         6.01854191569669   13.63301026173176   13.48820025302065
C         5.63021007857426   14.58655733374430   12.49584124830166
C         4.41316387839155   14.42810197025931   11.80050961772159
C         3.42688320538979   13.51869262858633   12.30685148397729
C         3.72833945584406   12.67577315808911   13.39410622952515
C         5.47061891616369   11.50176344625919   14.82208540134179
H         4.86744352690763   11.53827681118644   15.73488754025171
H         6.50850806009993   11.61443970877371   15.12736054038077
C         5.31251487391842   10.13360707122481   14.13902103203761
H         4.27463324133908    9.79682556650349   14.18112400616433
H         5.92202284776302    9.38632371707565   14.65009762576754
C         7.37634252793456   13.80738480179599   14.11617900328027
H         7.67448471107402   12.96320563027812   14.72778748355807
H         7.38192711397726   14.69674903778935   14.74960239004123
H         8.12737347475313   13.92979720592029   13.33727673780989
C         6.56374468392852   15.70837136680719   12.14415721499627
H         6.02536311409101   16.54171514584620   11.70127366924596
H         7.31195296397245   15.35609908919791   11.42955668856174
H         7.08294053528360   16.06988233619738   13.02819306919660
C         4.08314275036719   15.28259039836350   10.60601938275881
H         3.51487650638141   16.16784731721479   10.90075862655068
H         3.49282568875060   14.71187391253951    9.89223593155675
H         4.98855446188334   15.59768549382569   10.09375070045684
C         2.07463410510116   13.50321688521158   11.65581054941592
H         1.33771160622869   12.96714204371454   12.24380988216911
H         2.15867899080749   13.00136160547378   10.68798251848534
H         1.71730778394492   14.51762085456640   11.48779677937067
C         2.62066627162341   11.89718359316643   14.06039456766278
H         1.79161295828290   12.57035497764758   14.28347095167885
H         2.94325133251713   11.45929645012517   14.99962046445616
H         2.24449516258797   11.10112724090183   13.41847287322203
C         7.40388036200415    9.36786065007561   12.12425754901863
C         8.42469749333153   10.27919540563765   12.80238675617934
H         9.43455258174816    9.91102569764029   12.63261082122530
H         8.25356997801060   10.32318190842456   13.87718074013532
H         8.34813605430338   11.28168175807307   12.38129389026722
C         7.45748397532218    7.96134119943273   12.71536707445492
H         8.45383448204506    7.55158687334502   12.55699891200515
H         6.74441349386096    7.29961173214818   12.22988949669577
H         7.26507246702059    7.95930782818067   13.78637424255154
C         7.66727437702267    9.31465883400653   10.61873944590945
H         7.45181258004827   10.28391965699525   10.16701868502530
H         7.04801214948808    8.56054176320893   10.13754739496109
H         8.71095584280783    9.07390001055627   10.42719558231084
C         4.54650882482758    9.00197652125979   11.64626248937416
H         4.76777416109115    8.85121287705648   10.59119548604427
H         3.55424506946796    9.44867457737627   11.71311823355722
H         4.57465556253812    8.05882776578410   12.19009741789951

