75
CSD_code = BETLOD | q = 0 | S = 0 | Stoichiometry = C27H43Cl2PRuSi | MND = 9
Ru        2.01657969004338    8.51301788956311    8.00255360231038
Si        1.70538010528030   11.12983686385907   12.31789692693674
P         2.85404164213157   10.07954585451462    9.45231852442533
Cl        0.28331825884159   10.05788646422959    7.59849191942619
Cl        0.95414068555536    7.86412314852379   10.00748196484322
C         2.42024057593095    8.44691815193452    5.75299023202600
C         3.64825943600245    8.40003536850628    6.43208055062656
H         4.44132743567976    9.08619460361127    6.15279980361982
C         3.90431685066628    7.39381061408593    7.40391267029332
H         4.89225989562792    7.32790237812902    7.84550199008949
C         2.93475095458827    6.42177471521436    7.70534920650800
C         1.69261551571159    6.47246116841538    7.00871519365524
H         0.95381244054048    5.69970473468015    7.19442051326958
C         1.44067511718867    7.45771036658832    6.05784297292572
H         0.50633482597354    7.45769035237284    5.50609525297660
C         2.13809621321990    9.45704536335978    4.68280560241903
H         1.28713414321591   10.07460247947746    4.97812858014988
H         1.88024727535945    8.95505294119723    3.75008257793533
H         2.99669908205565   10.10310644939154    4.51126530722281
C         3.23485913692568    5.24542496420936    8.60457763661574
H         2.29550050981955    4.71135439868563    8.78556872343827
C         4.19734270765997    4.29874371637145    7.87802875368187
H         3.78711004904119    3.99323892738044    6.91703195756547
H         4.36571308179726    3.40868844398777    8.47924161281198
H         5.15649347261678    4.78296846218550    7.70446668143973
C         3.79358065355834    5.66727319853366    9.96211139224718
H         3.92544589167780    4.79248476042494   10.59402212487843
H         3.09056951997681    6.34202355572062   10.44581943551724
H         4.75653449488907    6.16251908719130    9.86027194372783
C         4.00363319316808    9.32171172255078   10.65549651264877
H         4.85193497028807    8.90209554133580   10.11682592709172
H         3.47010233502046    8.52783697650545   11.17086931715471
H         4.34894954477916   10.05664542580000   11.37594112681338
C         3.94866979363735   11.31533594356557    8.60431760999621
H         4.75916305735309   10.71762883359177    8.16191876557551
C         3.17254085051328   11.99854168135106    7.48035907843469
H         2.72941738493465   11.24214170733151    6.82884699281057
H         2.34727279445255   12.57434082509254    7.90347420535708
C         4.08142540712356   12.92975150504849    6.68563700210447
H         3.51031073252142   13.41776872086805    5.89382340927067
H         4.88117894288939   12.35132437865021    6.21485488452185
C         4.69492605760276   13.97751876282115    7.60945445493130
H         5.36002618390307   14.63356344546299    7.04412953189160
H         3.89915382783473   14.59293457272291    8.03425440130110
C         5.46900911878358   13.30149483263872    8.73686861465660
H         5.88786593159716   14.05604516163704    9.40613024388151
H         6.30137612472811   12.73368496051244    8.31327966513501
C         4.56531843596903   12.35890496406448    9.53163740282048
H         3.77387954084155   12.93749010342652   10.00932100787916
H         5.15135335256545   11.87651121074849   10.31515362062284
C         1.64511468514067   11.05867292097427   10.40148577488371
H         0.67450555187966   10.63231756757202   10.13519386208195
H         1.65764644448302   12.06430195764410    9.97804118798591
C         1.73501862975785    9.42643032764290   13.16270229657150
H         1.15657508630462    9.45155577782761   14.08141850494107
H         2.73993591253677    9.10959273969009   13.42448901397942
H         1.30152245317076    8.67193231970825   12.51136542021284
C         3.14072116494524   12.22866347651290   12.94736275069208
H         3.02316780712534   12.38745080005200   14.01477343857951
H         3.14399165052344   13.20558742699060   12.47322914134292
H         4.12034318968948   11.78790496753385   12.79276819705341
C         0.05883827918492   12.02675884260615   12.75626016180337
H         0.01055294585794   12.98154204028765   12.23277869561730
H        -0.77397629353463   11.41849927808619   12.40602088485072
C        -0.06178633793432   12.25204097509635   14.22316581408253
C         0.47065517338482   13.39250223962750   14.81401547841386
H         0.94288454579696   14.13824204735213   14.19052382086299
C         0.39411034720078   13.58702414903587   16.18067240277921
H         0.81040107411503   14.48194621541824   16.62117748249502
C        -0.21681804463791   12.63991992098800   16.98495189853002
H        -0.27787102555310   12.79069073225561   18.05273850811648
C        -0.75582281462768   11.50243238025693   16.40857669325901
H        -1.24169892243487   10.76206839783981   17.02794583439219
C        -0.67807569103062   11.31177300270485   15.04100821519004
H        -1.11062305340634   10.42733879816578   14.59556709282937

