125
CSD_code = BETMIZ | q = 0 | S = 0 | Stoichiometry = C50H52N10O12Zn | MND = 4
Zn       14.09628131048615   14.94838585860909    9.02943629428396
O        16.06022513587313   12.34423578299951    8.91460928229503
O        11.63774981781112   10.69844805318234    7.11939098191861
O        14.62385486937963   13.92943707680639    5.97638290403632
N        11.76788442942900   12.68197369034979    9.34316728036196
O        19.10939080649526   15.40136740741240    7.49506944605651
N        15.97288957609175   14.63670411391243    8.82095519105034
N        13.20634052175651   12.12148805052490    6.22312324419858
N        16.64207605564670   16.85589539530612    8.31863127478120
O        15.27381682959374   22.86909674993766    9.25438940739038
H        15.82110304680721   23.63125884227423    9.49620669633159
O        15.80902227545612   22.49820157977672   13.95712489461053
N        13.29400380530388   13.68674062989498    7.83224499504882
O         8.29311470771027   13.69741513393063   14.30883618917066
H         7.36112590420879   13.49450063906123   14.47992583812448
C        11.29369896378732   15.52961215583526    6.17613699035159
H        11.66136903477942   15.46073630725370    5.16466946624250
N        15.38776484570771   18.78460147475263    8.64421527140096
C        13.57029563441620   16.10416570486382   12.30443646330986
H        13.41747366409991   16.16032070750942   13.38734101556410
H        13.32034190596325   17.08253318016673   11.88451014931725
C        14.08133341529772   19.12436624409876    8.88314496660130
O        16.28197450069021   23.82337000034854   11.46236820698184
C        11.93042878378463   17.72193478582619    9.21210629121656
H        11.40076882276218   18.66060588647319    9.01817062614673
H        11.73920876860428   17.44481505210757   10.25247979060324
C        15.46578010731287   17.43326182581288    8.61516603113816
O        19.02921805778865   15.09385395872038   11.19057032394233
N        17.83102543278682   13.59149804481679    8.11150863162645
N        12.88700388443275   14.50244320818946   10.51679736342197
C        11.80645386512832   16.51060250516151    7.00688992623708
H        12.54729098787584   17.19143628793004    6.61406086588530
C         9.99273152007170   12.65692991457119   11.53584382927078
H        10.05527810068336   11.92548900045479   10.73224767676244
H         9.06884193835766   13.23044974342202   11.43989366693273
H         9.99625988864504   12.15813674641048   12.50475408175566
N        11.13014315187547   13.52190900971473   11.41447485205940
N        14.25994385692498   16.90162938375851    8.83856396332886
O         9.77723485762809   13.63315527376195    5.94009162303574
C        12.31976085298190   11.69010956699277    7.17271163319868
C        15.01971040731774   15.81159026970901   12.00871128213069
C        12.42781662671357   12.74405512284112    8.23909828959482
C        11.38101796672770   16.63617885570482    8.32139177392792
C        16.81985832093115   15.58192544580754    8.38107540858156
C        18.09151563131761   14.92210091374634    7.92564257388660
C        13.55619265692979   11.41120840120092    5.02048924518418
H        14.32601295077712   10.66496411908898    5.22883864965926
H        13.94074688133102   12.12878574921377    4.29672725049119
H        12.66817002946554   10.90980926479623    4.63643386754100
C        13.80537256420282   13.32251951181034    6.62489753200581
O         6.00178226490650   14.81180831210280   13.75255412681258
C        11.94971207435271   13.56677806846359   10.33800172762006
C        12.66523627057817   15.05480664863610   11.74616731737707
C        13.39149587924844   17.94424814633340    8.99762595682912
C        14.18008361595427   21.07208381067006   10.37454515865028
C        16.54786641450132   13.41581610746614    8.64412777007826
C        14.98024691101287   22.21005716287172   10.40713130763248
C        13.65176879397679   20.53895141830252    9.06435024789619
H        12.56114784559000   20.58565072432899    9.05726355299666
H        14.03074469725485   21.16346393957165    8.25458419317479
C        13.90862852949847   20.43005210024466   11.57077660518551
H        13.28164832946243   19.55174003688241   11.56221035512501
C        16.50263779416814   19.67065116891014    8.47505005869363
H        16.26880057335030   20.43852214568266    7.73766750021382
H        17.34565223429356   19.06932823335851    8.13980348144525
H        16.74799879757485   20.15602879041079    9.42157422962439
C        15.23912999615083   22.01464901226753   12.81044538231261
C        15.49951090132174   22.69571068368650   11.61552316694003
C        11.56999425875447   14.45662309027127   12.31584933305959
C        14.42623650240027   20.88551561712304   12.76746124442424
H        14.20126505632775   20.34598652136183   13.67210712960419
C        10.40086105718800   15.76535254204951    8.78720997765675
H        10.03507099551090   15.86034104104736    9.80126570107881
C        15.89784566745626   16.83217828143412   11.65854137185355
H        15.54009776443383   17.85108363020439   11.59054531287746
C        18.69991683460034   12.50716718320628    7.73431633525570
H        18.64718128577970   12.33520593974356    6.65709918435602
H        18.37012533970555   11.61110030893087    8.25857864870140
H        19.72552776263386   12.75881577768190    8.00407223399871
C         9.88219061600452   14.78464089403589    7.96983177452631
H         9.13442985605109   14.09449213963898    8.32672929847721
C         4.82908483858689   15.51433377699015   14.10380038360573
H         4.29283599654875   15.86724635062341   13.22205637582899
H         5.05525706395852   16.36347264837515   14.75338401010764
H         4.21311246141534   14.79562155613529   14.64426811846642
C         9.54390317016560   15.44693343809461   13.28065310190008
C        17.71204168736229   15.25886938022066   11.48973052264110
O         5.90950380019250   17.27782697809388   12.30020552675790
C        15.51699380411875   14.52085051127358   12.12101510957896
H        14.85949991482697   13.71624225706873   12.41612663170421
C        10.33457168308833   14.64607295138220    6.65698873862823
C        15.55086522096434   21.83301486124156   15.16900231218525
H        15.91264428160922   20.80070620005640   15.14658346638804
H        14.48447362844694   21.84257090758883   15.41547664159442
H        16.09964946354653   22.38957473803484   15.92720206810002
C        10.84273200533684   14.73978254087385   13.58501946195248
H        11.46749302284003   15.36816619921482   14.22231402685182
H        10.62183127421291   13.81395245439757   14.11708090344131
C        16.84751488394013   14.23831869193324   11.86807378423384
H        17.18844826648317   13.21914262992141   11.95533126672449
C         8.32461831910796   14.88300818910120   13.64336511498013
C        17.22554712081334   16.56379790049519   11.40325031648971
H        17.90967160810155   17.34551436170751   11.11367810501553
C         9.52909206152533   16.65492295285140   12.60440345757986
H        10.46734952849064   17.10944489233561   12.32531989181982
C         7.11301277677826   15.51666913049501   13.33309826208755
C        16.35903036370230   24.76113562014041   12.51426540385802
H        15.36948537469732   24.98505703842636   12.91975051361113
H        16.78245574570576   25.66115690900489   12.06830764772842
H        17.00749939549132   24.41024119821116   13.31804343468642
C         8.34405497722762   17.28404711133328   12.27672931462923
H         8.37977292359583   18.21485569676151   11.73587559659304
C         7.11813848641041   16.72231441850509   12.62189180285709
C        19.57418301928482   13.79829536760650   11.25329237482525
H        19.03544532225685   13.09982925023694   10.60665777348176
H        19.57333340423386   13.41425671274135   12.27940318777044
H        20.60115985384816   13.89580020509429   10.90483003801802
C        10.20799098935108   13.43068928020672    4.61640653997686
H         9.69379667728201   12.53358771843249    4.27541872523085
H        11.28866899992334   13.27167653265458    4.56144609150287
H         9.93378515179643   14.27450741276437    3.97343292563073
C         5.89459938747504   18.50194664411335   11.60767477529784
H         6.36754336278862   18.41414564421068   10.62475216388712
H         6.38385170107129   19.29580954040992   12.18094657126035
H         4.84180409248502   18.74878909725587   11.47888434040257

