64
CSD_code = BETRIC | q = 0 | S = 0 | Stoichiometry = C31H27Cl2FeN3 | MND = 5
Fe       -0.78797897087125    2.29363662507057    3.01864008977389
Cl       -1.85255048449642    2.49735060000214    1.17594780186914
N         0.81690163036704    2.04696384040080    1.94253697631101
N        -0.78797558155273    0.51394553221664    3.01860847509599
C         1.50224652048265    2.98380408832169    1.28134396670874
C         2.53639885822602    2.65689243029356    0.41033480540761
C         2.88614339772326    1.32771373923964    0.22737277170079
C         2.16286828793714    0.35620961983590    0.89007299013786
C         1.11893479880602    0.74245047410511    1.72718215049981
C         0.20032868439439   -0.16328506636072    2.38573946958605
C         0.22419083213383   -1.55202199876980    2.37722959541702
C        -0.78798034890005   -2.25084858233986    3.01853241399855
C         1.15677187945146    4.40104020404427    1.49075763314900
C         1.14688987993638    4.93974057789666    2.77149043015082
C         0.94710875857292    6.30203126862249    2.96173229892385
C         0.73239560543498    7.10933861147393    1.85653431346651
C         0.71115789353011    6.58442394680127    0.56794044096203
C         0.93548622061703    5.22924897372727    0.39244514042028
C         1.03027709101910    6.87208792997220    4.34335835257522
C         0.46131318975972    7.48324259239989   -0.60565063632248
H         3.06387151981930    3.44757116878867   -0.09925564422511
H         3.69876058884591    1.05820321722269   -0.42976537264841
H         2.38533161663298   -0.68955622019351    0.75573286742888
H         1.01976834231040   -2.07846368340083    1.87579718945233
H        -0.78798516149577   -3.32934253272747    3.01849174650559
H         1.36235064055583    4.31104459118491    3.62147474116142
H         0.58749351901633    8.17228434078891    1.99346938369020
H         0.92434170875938    4.80328850329473   -0.60035033013595
H         2.07591188337499    7.00971121860494    4.62152492532412
H         0.58068658189591    6.18897584079999    5.05973535948802
H         0.53229749915429    7.83648871214221    4.40024798258775
H        -0.56513436733750    7.84870927284181   -0.58896512273707
H         1.12328391587686    8.34738673383759   -0.57306929483541
H         0.62023920906933    6.95453209929993   -1.54190467075062
Cl        0.27659015563439    2.49717648421829    4.86134907979717
N        -2.39280656143582    2.04691499120126    4.09474259694153
C        -3.07820321408874    2.98374444333837    4.75590066880656
C        -4.11238954464308    2.65682414506837    5.62686283550165
C        -4.46210737361174    1.32763890063618    5.80983810403547
C        -3.73880624294559    0.35614379136534    5.14715200611540
C        -2.69486340554530    0.74239584861081    4.31005962824714
C        -1.77627197492353   -0.16331888400873    3.65145512464271
C        -1.80014334588519   -1.55205719802440    3.65988525361370
H        -2.59571648515305   -2.07852228163689    4.16130122809820
H        -3.96126623655458   -0.68962631546413    5.28147645397969
H        -5.27474867944383    1.05811720799296    6.46694471431061
H        -4.63990429343945    3.44750159794233    6.13641166582803
C        -2.73273396659505    4.40098263581241    4.54648457925196
C        -2.72291766964451    4.93967564775388    3.26574942687984
C        -2.52307658898686    6.30195311564257    3.07547681492816
C        -2.30834199786407    7.10926809053541    4.18066460631767
C        -2.28708638455259    6.58436842744436    5.46926591998534
C        -2.51137468235690    5.22919017918536    5.64478450127095
H        -2.50021046714015    4.80323988366289    6.63758020867659
C        -2.03728421341962    7.48322675470138    6.64283827900349
H        -1.01090365209424    7.84883311731478    6.62609154067416
H        -2.69936296116431    8.34727276616934    6.61028518576802
H        -2.19609171436666    6.95452009546886    7.57910292231612
H        -2.16342108198407    8.17221022285923    4.04372100422906
C        -2.60613387071177    6.87198064974536    1.69383864008959
H        -3.65172194042890    7.00997312698305    1.41570031129308
H        -2.15680787029219    6.18870211923394    0.97745818087195
H        -2.10782507166669    7.83620228506364    1.63688241580339
H        -2.93841430374771    4.31096948168663    2.41578286254888

