55
CSD_code = BETSEB | q = 0 | S = 0 | Stoichiometry = C24H24FeN2S4 | MND = 6
Fe        4.12932069192193    3.73625713174138   -2.73248210235910
S         5.45195732928516    3.96378396467868   -0.85887280357988
S         5.82102376257500    2.76211652158772   -3.80061548258375
S         2.51374887596639    4.90369156599001   -1.74547203999226
S         2.78756198167312    3.45790903336886   -4.58433515694844
N         4.77477986507983    5.38636294836581   -3.41437036721194
N         3.16836309027598    1.14451742390604   -1.64966809961439
C         3.53076356583383    2.16171649570574   -2.07629087630691
C         7.02766395730192    3.61975777721454   -1.47143101196514
C         8.15735582722447    3.84396092081883   -0.67321661327981
H         8.00930546158608    4.23939302682212    0.32002694535505
C         9.41967009227847    3.56806746917077   -1.14597076926620
H        10.27728927381438    3.75419618342585   -0.51611173930924
C         9.60183844900641    3.04742841833158   -2.42304927222574
H        10.59335512919295    2.82743562300477   -2.78763583000008
C         8.49965872777175    2.80438321455696   -3.21946521381971
H         8.61459815466817    2.38250260863532   -4.20770592388656
C         7.22980141800373    3.10609063243047   -2.75556982721663
C         6.01686281617269    4.10390356183105   -5.03620775171941
H         7.03474429359008    4.09899765820762   -5.42354005350421
H         5.31361324526821    3.83524621412535   -5.82732886690546
C         1.51939516431466    4.59236864539943   -4.30054979032955
C         0.58414775595497    4.86944914143676   -5.30665175463306
H         0.68700681798468    4.36025032364748   -6.25265554350881
C        -0.43593220023821    5.76739219700335   -5.09188834731625
H        -1.14280091500621    5.97054161813052   -5.88312088684291
C        -0.56920526781630    6.41138613483137   -3.86601044812630
H        -1.37398529768496    7.11091055366228   -3.70040370604318
C         0.33310726200083    6.13955982364220   -2.85598909068881
H         0.23842581229282    6.61225888036783   -1.88879118459681
C         1.37595768897352    5.25533221274036   -3.07839900069742
C         3.45525876164249    6.47803388059400   -1.71474981215882
H         2.76264954740779    7.31788145047683   -1.68002372610501
H         4.02444332552637    6.42381753818165   -0.78429682516731
C         5.64162677489503    5.41705707242416   -4.44008751317541
C         6.15209570031295    6.60035208051333   -4.94379001655177
H         6.85598272756312    6.57116673842766   -5.76045138729554
C         5.73480549560471    7.80583146340277   -4.40275835111336
H         6.10737507821874    8.74278320842112   -4.78483231334809
C         4.82596121284878    7.77451793499125   -3.35733551869898
H         4.47206072932656    8.68523777506848   -2.90061487272088
C         4.38222232639209    6.55412163727295   -2.87926652793963
C         2.75926456160898   -0.09854653374910   -1.13443641251815
C         3.87809714789195   -1.10816157144263   -1.40682608481652
H         4.05803681496528   -1.19016592259060   -2.47626651593151
H         3.60062169446365   -2.08474523582520   -1.01883615199717
H         4.79947661057884   -0.78581366465888   -0.92708296604209
C         1.46803385234434   -0.50490863537942   -1.84954293417012
H         0.69166433411705    0.23660916153109   -1.67534666823570
H         1.12561398493834   -1.46812924675977   -1.48027124934948
H         1.63874215421573   -0.57659183550103   -2.92119248019674
C         2.52687281888971    0.06799418276478    0.36970810581582
H         3.43946473226187    0.40647281287983    0.85476075698556
H         2.22419441397756   -0.88009221534409    0.80659453453734
H         1.74854237079377    0.80560999954395    0.55111753925174

