70
CSD_code = BETWOO | q = 0 | S = 0 | Stoichiometry = C35H25N3O6Zn | MND = 5
Zn       -0.44740032215358    3.36408502363375    2.62867810325089
O         0.60313371256375    2.09713573067497    1.54624687691522
O         1.59386918877345    4.05603614002674    1.46921451230583
O         5.56999328619127    3.31773937440577   -1.57731715227379
H         5.47766932484272    4.21986922246337   -1.24781618435420
N         0.82183102372229    3.86076890913469    4.26511907822322
N        -0.44762971240998    5.40597644915741    2.62848730557859
C         1.46300875779944    2.98388495799637    5.01201930090277
H         1.22553745668625    1.94644034600698    4.82254778193044
C         2.38175043555913    3.36101466398751    5.98172205927677
H         2.89221635756824    2.61683200859843    6.57196940403333
C         2.62329771798276    4.71252983408474    6.16656947007028
H         3.33067430957928    5.04963923575527    6.91026594966885
C         1.94471016234015    5.63013529229925    5.38205845612148
H         2.12250139885774    6.68576706824610    5.51021579154935
C         1.04224538578300    5.16595726835045    4.42721136139346
C         0.28383097267969    6.04628163259089    3.52324921565322
C         0.30614706282087    7.43738624603359    3.55993152791433
H         0.87403548932761    7.97294415935509    4.30366599703839
C        -0.44731653619807    8.14942586725226    2.62782167547634
C        -0.44735763075771    9.61958658143509    2.62761510007776
C        -1.63232647248007   10.32668742552004    2.43704233479803
H        -2.56026912257199    9.78809605955643    2.31142501211792
C        -1.63150702175436   11.70915732593136    2.44238885439878
H        -2.55744676273435   12.24706778353498    2.30159682315075
C        -0.44761046300235   12.40399031878937    2.62748994696206
H        -0.44781984731193   13.48362291573736    2.62698270179256
C         1.52472119207570    2.86104524720111    1.14659700230772
C         2.56506064014031    2.27169694393516    0.24190099975250
C         2.51557687517327    0.93000293058260   -0.11482850070136
H         1.71642092872030    0.31964213067992    0.27465314720410
C         3.48497804010254    0.40779102276283   -0.95253543172360
H         3.45329208146054   -0.63506848177010   -1.23263800725687
C         4.50242193767371    1.20941514068806   -1.43735798231338
H         5.26576851696747    0.81620009737528   -2.09049146182068
C         4.55401002230560    2.55391272351860   -1.08121988847271
C         3.58393218701134    3.08119413143369   -0.24212241224741
H         3.60076226723138    4.12328701802652    0.04886786448943
N        -1.71620767343247    3.86039191416158    0.99123413611840
C        -2.35733522861174    2.98351095098845    0.24428306638311
H        -2.11927779468807    1.94607837331046    0.43307692901018
C        -3.27650291573015    3.36054677033075   -0.72503282782743
H        -3.78668013816094    2.61635027549414   -1.31549905675043
C        -3.51880083625964    4.71202995325953   -0.90929859118515
H        -4.22674864547017    5.04905857455848   -1.65247737243702
C        -2.84029483495543    5.62962084901732   -0.12473653987540
H        -3.01876461097041    6.68521947920622   -0.25215642429212
C        -1.93716904443755    5.16550292217941    0.82953069218709
C        -1.17876065422510    6.04599333249264    1.73336267112562
C        -1.20076626970132    7.43714125663990    1.69598514508911
H        -1.76843041680470    7.97238162918012    0.95185403940864
C         0.73745130595463   10.32696720474967    2.81815309672585
H         1.66542654924586    9.78846673090476    2.94411849907026
C         0.73640803089409   11.70941129944400    2.81270189723116
H         1.66221588254726   12.24764985551341    2.95312717320763
O        -1.49776924424666    2.09712400651111    3.71127546284491
O        -2.49015806811694    4.05527709340742    3.78549808258852
O        -6.46624113924596    3.31741615426824    6.83245111946681
H        -6.37356384680163    4.21997246201672    6.50424182745645
C        -2.42101232990465    2.86035816480707    4.10837898486505
C        -3.46157507512842    2.27107887713138    5.01288045552182
C        -3.41218350035973    0.92941215831701    5.36972011032898
H        -2.61255611581346    0.31920198494479    4.98097301254426
C        -4.38185220691754    0.40724568500812    6.20715094666502
H        -4.34994208356421   -0.63546365900188    6.48773558660599
C        -5.39906326315599    1.20904875728606    6.69212536844095
H        -6.16229708997476    0.81602193654172    7.34549172059512
C        -5.45042421372196    2.55361189352454    6.33610749947006
C        -4.48050923479345    3.08065033993532    5.49667670180475
H        -4.49772813406124    4.12254602887776    5.20503995442467

