9
CSD_code = BETWIG | q = 0 | S = 0 | Stoichiometry = C2F6Hg | MND = 2
Hg        2.08243120950116    1.28792292997815    1.04716871794199
C        -0.20664947829387    2.30304591378330    1.49293396221311
C         4.36027251735155    0.28058950552982    0.54025729653446
F        -0.40616109484175    3.40527967531869    0.75525466961503
F        -0.35706745031346    2.65323997379637    2.77854925768161
F        -1.19310971223415    1.44399384888321    1.19739840078177
F         4.83662068191931   -0.42717483539777    1.57469471654310
F         5.26616938977425    1.22780090166683    0.25641190355910
F         4.30639393713689   -0.54569791355858   -0.51476892487018

