70
CSD_code = BETWUU | q = 0 | S = 0 | Stoichiometry = C35H25N3O6Zn | MND = 5
Zn       13.20234340304264    4.16106144222256    2.44367141879394
O        15.06802192765756    4.60004904297640    2.87854802118261
O        15.14491538660098    3.02853519596381    1.34921082284314
O        17.39675102758385    2.11510037245350    0.55470056219615
H        16.41458661052449    2.25835402189956    0.64907313762390
O        12.35803081518491    4.89773499365547    4.08067895939621
O        10.88130930312323    4.62740776845787    2.48802035787157
O         8.45098107227185    5.34131960098975    2.84732008568718
H         9.27542987232606    4.97765504323919    2.42137136146323
N        13.04285870026256    5.73563682599557    1.00918269947461
N        12.53083793890164    3.20897247796608    0.76671232056983
N        13.00406275606834    2.14007195694886    3.06804454648406
C        13.22536020023156    7.01427121407386    1.27566991791921
H        13.67287537182466    7.23319845540553    2.23507594854842
C        12.86744308896216    8.01919689068787    0.38755410658930
H        13.02639649001973    9.05501445657236    0.64125609496122
C        12.29721729569773    7.65553188374922   -0.82132694608566
H        11.99535216088888    8.40631836520327   -1.53665425767127
C        12.11345497153430    6.31128066736176   -1.10070187033798
H        11.65895161581434    6.00758110425161   -2.02994348443108
C        12.50207755906064    5.36716890638261   -0.15368700154705
C        12.33155849472959    3.91563364241166   -0.33172826701788
C        11.99648880026754    3.29107301591422   -1.52925096624919
H        11.84363063884167    3.85639135098749   -2.43438876595051
C        11.85018998275903    1.90470379955424   -1.54786610618957
C        12.05325432408536    1.19606220190857   -0.36379420507877
H        11.95721417913563    0.12249559275203   -0.36518376782856
C        12.40874256114183    1.89275657093606    0.78656749102919
C        12.70304858076339    1.28010256065561    2.09278989121896
C        12.69782717214835   -0.09366586014924    2.32164543448570
H        12.45883484000569   -0.78620929933121    1.53102229098513
C        13.01637384057506   -0.56548057138453    3.58446064537675
H        13.02383206464633   -1.62719759170305    3.78252312567664
C        13.32722984492319    0.34248339929681    4.58318378667157
H        13.58321892155930    0.01398675271083    5.57770702025005
C        13.30604091649548    1.69504512717000    4.27218333456755
H        13.53640003996659    2.45405553175506    5.00675276174336
C        11.49378327352302    1.20337872159732   -2.78934656991396
C        10.56191598976966    0.16807337653802   -2.77370270880288
H        10.08131260981714   -0.10368168336181   -1.84527617498353
C        10.22439349642703   -0.48739112634194   -3.94310917028019
H         9.49414722333970   -1.28258055594451   -3.92080055719126
C        10.81998486060539   -0.12638116745797   -5.14034508948023
H        10.55888830628174   -0.64227450561771   -6.05200027542950
C        11.75182719514171    0.89808231327810   -5.16436564307859
H        12.22231810975165    1.17902148558683   -6.09481001558930
C        12.08359638285570    1.56340682428403   -3.99885618276845
H        12.82556913747012    2.34804987015762   -4.01813607493930
C        15.71863264212446    3.81727200862557    2.14109616984876
C        17.20261733028092    3.83576712302356    2.21790212535523
C        17.96782881006521    2.97450291985655    1.41314554947025
C        19.35991452970277    3.01435390073649    1.51016907477176
H        19.93496083643278    2.34731300615392    0.88654744705920
C        19.97373860540042    3.88690007417054    2.38369589778046
H        21.05235290783536    3.90558811359448    2.44682868582182
C        19.21854013532159    4.73816235267338    3.18024774415852
H        19.70721848235818    5.41781150573788    3.86209072045400
C        17.84256986343983    4.70814106356580    3.09411255638557
H        17.22622519395554    5.35429351025594    3.70031489681227
C        11.18328722844615    5.00092793899126    3.65153015955742
C        10.14018764610223    5.57587968360097    4.53689017050769
C        10.47224083529210    5.98362729825027    5.82629596641708
H        11.49687670980154    5.86389695007437    6.14373168707873
C         9.51844105193243    6.52383309402505    6.66266367952842
H         9.78355219703111    6.83727516332159    7.66111164545012
C         8.21194819799664    6.66356416238782    6.21161811757711
H         7.46003769181395    7.08652679761304    6.86228180569405
C         7.86242413073799    6.26757110942622    4.93800073745106
H         6.85117962286060    6.37154827854633    4.57601292778816
C         8.81824599645537    5.71794348265447    4.08156019223938

