70
CSD_code = BETXAB | q = 0 | S = 0 | Stoichiometry = C35H25N3O6Zn | MND = 5
Zn       -0.29900330555292    1.86299887753485    9.02593700446539
O         0.24645692477485    0.39223236989739    7.89066793638162
O         2.24485668302637    1.27532643910263    8.21825134709691
O         3.63478091348994   -3.51211264117866    4.28353751655305
H         4.59032702611234   -3.40954841435246    4.19603891486541
O        -2.16651053547651    1.32656409902450    9.43901782529463
O        -1.62926679453494    3.33082004035540   10.13461205655374
O        -7.70167204921218    3.00478764878226   11.97810220917637
H        -7.82303952694656    3.87115556428860   12.38510409822580
N         0.57757045104039    1.28219475340198   10.86939656235499
N         1.10229190914297    3.30909937305016    9.35101321548679
N        -0.55822713568294    3.19363899823156    7.36946436433806
C         0.20816782322224    0.24277275440010   11.59176237407901
H        -0.60286339581940   -0.34486123276621   11.18465088244552
C         0.81296859592489   -0.08032482403890   12.79832388894621
H         0.48496972865834   -0.93832515637805   13.36318222084525
C         1.84227535175585    0.72782999119116   13.25302448121713
H         2.33786703172486    0.51533299389840   14.18917868958991
C         2.22906386365704    1.81644011205693   12.48980847995680
H         3.02575028870293    2.45831826718588   12.82973321946993
C         1.57122183188061    2.06790647673570   11.28722790768034
C         1.90922480366813    3.18486808348878   10.39051774533991
C         2.99600498878190    4.03708264580803   10.55313840921648
H         3.67851987059727    3.92891519148213   11.38065586722063
C         3.23375894333717    5.01918325298363    9.59212316326841
C         2.35803749333232    5.12209632714556    8.51324834021458
H         2.52466498631450    5.87796211090738    7.76254128531964
C         1.28315624874752    4.24148497157938    8.43274553119567
C         0.28329722332459    4.22835735579199    7.35247154827192
C         0.19172416031996    5.21476345738499    6.37199088530817
H         0.86450775648820    6.05731197597721    6.36987712853570
C        -0.78973153264999    5.10704855781220    5.40121767192793
H        -0.88139255552127    5.86177075564749    4.63367319407565
C        -1.64996595102238    4.02133278145690    5.43181801212068
H        -2.42550916473826    3.90221310248902    4.69213647516578
C        -1.49156945574607    3.08582460213835    6.44471120058010
H        -2.12990855016268    2.21708296038429    6.52425150090903
C         4.38916650919476    5.92055606517460    9.71014466873329
C         4.72920268672864    6.47975859794011   10.93965119760590
H         4.12384872449163    6.26579079581612   11.80843434456420
C         5.81399099800152    7.33017641469650   11.04640289635737
H         6.06327779704693    7.76490951762917   12.00312788232799
C         6.57980754166366    7.62513683141946    9.93067970424837
H         7.42940342044826    8.28589563169562   10.01628464829869
C         6.25293868143713    7.06876392999809    8.70512830543310
H         6.85117692498242    7.29135683870647    7.83394657977552
C         5.16248195691534    6.22640482546762    8.59274527295712
H         4.92204599627371    5.77757610267183    7.64025404413170
C        -2.45855994989481    2.41239942592677   10.00898396947906
C        -3.84501701506320    2.57829205794254   10.53552043557213
C        -4.21716553639995    3.76027139260250   11.16378172756717
H        -3.48491842274383    4.54730595880627   11.26150177725738
C        -5.49973190152412    3.91832319193914   11.65055934650623
H        -5.79009876621729    4.84002078390983   12.13977601059685
C        -6.42723672315244    2.89068268314057   11.51322119142893
C        -6.05868265863828    1.70375578301163   10.88421996029961
H        -6.79362501848611    0.91998200758211   10.78860962760429
C        -4.77675903167280    1.55309273810452   10.40028347554476
H        -4.47185697081363    0.64211576080935    9.90906635589378
C         1.49969564577231    0.43291755244467    7.70628366289217
C         2.07400403943920   -0.61851508223086    6.80269042854301
C         3.43832370707611   -0.64265481393198    6.54355915396171
H         4.06641428074205    0.10187312166242    7.00953326840674
C         3.97531363713630   -1.60124591790242    5.70666797340983
H         5.03967296234853   -1.61924922325862    5.50543478248887
C         3.14725919814309   -2.55019913791876    5.11719249754636
C         1.77880143547215   -2.53160293533434    5.37451380844111
H         1.15533741585759   -3.27786532546119    4.90747903483984
C         1.25054676610410   -1.57171491079284    6.21168009624560
H         0.19333672438070   -1.54065528518397    6.42428871732682

