84
CSD_code = BETZEH | q = 0 | S = 0 | Stoichiometry = C41H39NP2Ru | MND = 8
Ru        0.06639540103808   13.85454612593987    3.77883601973463
P        -0.86187163033372   14.48055163923756    1.81651744114552
P        -0.71626801441951   11.82060877152856    3.22445318036262
N         7.10361348321553   10.81194699093361    0.73170052845134
C         1.62942576474015   13.11321477882233    2.80907268258352
C         2.70734772719552   12.67668230451112    2.42213994466916
C         3.87157120321916   12.19446941984507    1.96571811090107
C         4.93519646381698   11.74403175595035    1.56194036149891
C         6.10256227688362   11.24480777892528    1.11537453522916
C         1.41637408277905   15.05412374578225    5.09295984744012
C         1.00385759888544   13.85512478673008    5.76582890908558
C        -0.41606707038171   13.94036368074133    5.97964842548129
C        -0.88815434416968   15.13229753200973    5.36929184358802
C         0.25228999472066   15.82249005257232    4.81181641521323
C         2.83777844204298   15.49491215323140    4.90562657593225
H         3.45954037843379   14.68295264736268    4.53002052659129
H         3.24633743202744   15.81958723016792    5.86524608493052
H         2.90204042268341   16.32760978655176    4.20798520026964
C         1.93092874645876   12.87748866743949    6.42753703479239
H         1.49641845389045   11.87864901258147    6.46158332960364
H         2.14338757615596   13.19682594533928    7.45099519223898
H         2.87252761681801   12.81324980507753    5.88554257441898
C        -1.19464873213970   13.05585354805470    6.90746938630749
H        -2.20986833097471   12.87647732000223    6.55581762449546
H        -1.25595516184006   13.53499922745452    7.88790993995270
H        -0.70048988440626   12.09472381595986    7.03366257390996
C        -2.23637931904970   15.76121456358416    5.57852039854253
H        -2.62517765992553   16.20604566841299    4.66183468268698
H        -2.15511855646294   16.55384892115613    6.32663617001467
H        -2.95925258005592   15.03221618643351    5.94031771446133
C         0.23560202159266   17.24681231028115    4.33888178453977
H         0.97078686972304   17.41780385346966    3.55334539524493
H         0.47179075925958   17.90929939895315    5.17555700082472
H        -0.74610312142038   17.51958577502973    3.95587056132876
C        -1.54111175638200   12.99765347006689    0.90351059973519
H        -2.60499800426760   12.90257071555523    1.13999691029053
H        -1.43191629454132   13.13916064182403   -0.17547075782363
C        -0.80098128186346   11.75007972850714    1.37330781152169
H         0.22831120922172   11.77133535710771    1.00059402151155
H        -1.29727031056653   10.83228191040200    1.04143196904185
C        -2.27033447139808   15.64602225809342    1.80680855087028
C        -3.56719032425491   15.24612167163318    2.11684243462337
H        -3.79190366395241   14.20146333782558    2.27712977388019
C        -4.58277068153077   16.17914274908578    2.22469300812329
H        -5.58657707018296   15.85329181436235    2.45682371773386
C        -4.31655224934304   17.52607900372491    2.04239854344656
H        -5.11031744015686   18.25288251737504    2.13084633913665
C        -3.02576053394050   17.93646402721787    1.75118215424173
H        -2.80968209247620   18.98614438344926    1.61348159335412
C        -2.00991943140926   17.00539175442961    1.63882352711324
H        -1.00383516926651   17.32790255067603    1.40753413250970
C         0.16675173467388   15.25602048815833    0.51844006560572
C        -0.35581448692753   15.55116522758493   -0.73847785162670
H        -1.39266075262394   15.32981796517396   -0.95664293929377
C         0.44370331591189   16.14368110889786   -1.69689831518343
H         0.03741841094679   16.36896249087811   -2.67245766007549
C         1.76475581032456   16.45230412600466   -1.40859431284437
H         2.38650391383585   16.91210812086172   -2.16256851591059
C         2.28360114969532   16.17606581265079   -0.15518686443493
H         3.31087455725513   16.42075936810066    0.07177066004404
C         1.48489243308040   15.58268856454976    0.80669243122001
H         1.87547819159078   15.35048603896990    1.78990587721934
C        -2.43084051963211   11.32256570644504    3.61457139963784
C        -2.89649491205289   10.03127812887648    3.38780593493728
H        -2.21891345624076    9.27511377962747    3.01448577992970
C        -4.21802555101428    9.72115362212215    3.64990678773968
H        -4.58001483933565    8.71838468939132    3.47512267207216
C        -5.08115791512563   10.69204330337602    4.13573841466820
H        -6.11213131074076   10.44264577634609    4.33947174370680
C        -4.62261151696035   11.97936680027768    4.36011659374555
H        -5.29509429555890   12.73715653072489    4.73722111412553
C        -3.29979362911131   12.29028676312960    4.09940798992409
H        -2.91674451700196   13.29134908594140    4.25989543065061
C         0.20240230384058   10.32907945271782    3.70254250352329
C         1.23907146091167    9.79947156307840    2.94135710040371
H         1.46631775407541   10.21265068110987    1.97085668895630
C         1.98711339906689    8.74340214322730    3.43072737042130
H         2.79130827846311    8.33745715247200    2.83495220737179
C         1.71555053160947    8.21253717103332    4.68068924349206
H         2.30576411734973    7.39157607080682    5.05996197971432
C         0.68705542698137    8.73845931897617    5.44675467411158
H         0.47311505753171    8.32665779015319    6.42287055665660
C        -0.06088828480569    9.79399349059806    4.96253444815019
H        -0.86920060370709   10.20910857631615    5.55203446557029

