45
CSD_code = BETZOP | q = 0 | S = 0 | Stoichiometry = C18H23MnO2S | MND = 8
Mn        4.87936447517109    1.40679070040072    8.23837269966000
S         4.31218019699568    3.33117432813037    9.45797956249299
C         5.18771623887209    2.27747111863177    6.73545558803059
O         5.37176043421576    2.86971230022839    5.75599612993093
C         3.23624278443029    1.11894856687993    7.66351911430032
O         2.15305732509817    0.95037178514580    7.28716016026246
C         6.52824177418138    1.14339352033650    9.61529898818747
C         5.39298060344999    0.44956970211231   10.10509070717414
C         5.05460965881938   -0.54606210621546    9.17540075228671
C         5.95767575140489   -0.45174649746372    8.08140827042214
C         6.88777330596225    0.58064662667652    8.38167822332803
C         3.41560038102099    4.30998855121599    8.58550260234873
C         2.67037671256991    5.14144084999579    7.93162706797889
C         3.32450117306014    6.24623959742577    7.10262293095939
C         2.49991457487901    7.53394475466427    7.22341535511098
C         1.01011929918204    7.31398191434704    6.99564049179616
C         0.46477680057266    6.32317077484468    8.01571887690210
C         1.15287539364656    4.95371832999848    7.95704580317108
C         0.76518517968890    4.14730950773101    9.20203740202545
C         0.71618863694550    4.15147964919452    6.72674691177327
C         3.45437419202193    5.79527033964266    5.64402828900504
C         4.73712268163760    6.50468737368143    7.63965539943357
H         7.09881560893909    1.88167021598043   10.16431485712174
H         4.96046059275042    0.56854264391837   11.09016625079443
H         4.31490132741444   -1.32240585129009    9.31547126388938
H         6.05748988643415   -1.17671486232976    7.28268471743977
H         7.78013000136558    0.80798304107569    7.81501554207663
H         1.16500343825103    3.13797632971873    9.13624860827714
H         1.15102289040237    4.61513334723201   10.10487992030148
H        -0.31785853155505    4.08469250759965    9.27991755471735
H         0.79506408634881    4.72686305681923    5.81147866221076
H         1.32775479442078    3.25789104297192    6.62669273660954
H        -0.32104465710956    3.84656848212419    6.84688931290701
H         5.36358436670463    5.62917858334395    7.48539890191254
H         4.71392558980550    6.73100346595151    8.70317838445525
H         5.18491017047874    7.34629051439710    7.11592408224498
H         3.91075480140478    4.81004255069816    5.59446031225021
H         4.09011035335543    6.49639090381936    5.10757998239654
H         2.49595791524111    5.75558570513674    5.13924269776474
H         2.88357644653919    8.26035646985331    6.50430051336893
H         2.64315497192994    7.94801140926355    8.22451308670102
H         0.48538912287690    8.26565957202620    7.10276223524220
H         0.82832618215543    6.95635400089122    5.98234016924997
H        -0.60623667948273    6.17965523444767    7.85978615953067
H         0.60306974750343    6.74026994874606    9.01625272195921

