35
CSD_code = BEVBUB | q = 0 | S = 0 | Stoichiometry = C16H9Cl2N4O3Re | MND = 6
Re        2.56131973276191    4.01980418439675    1.78639746034493
N         2.43988482165787    3.07887860996821    3.77663201000855
N         4.01334722152521    5.00779296867308    2.89881870083145
N         4.87691217553868    5.89730735454228    2.59785858268255
N         5.79804987859835    5.93173215561855    3.55745143826760
O         3.48374138301882    5.27782640729611   -0.87845559683777
O         0.81090859855381    1.88281952047481    0.40677133507562
O         0.29096029080403    6.03131163572005    2.38278385629563
Cl        4.35903650963624    2.45402717967146    1.61934995844147
Cl       10.31329640765220    9.67413488716232    3.06637976746522
C         3.07286319044138    4.83449111957871    0.09044428557507
C         1.40799914186465    2.72833363997738    0.89335463575309
C         1.13075401961565    5.28595540598655    2.13747793981568
C         1.60485777357856    2.11708711999886    4.14997765165450
H         0.77925724709895    1.91168987255164    3.48140541128004
C         1.76094701127104    1.39846325947803    5.32308407699109
H         1.05900584326183    0.61970906192331    5.57337796403580
C         2.83206252122743    1.69246362784043    6.15431547559294
H         2.98678221086819    1.14654077359659    7.07235933876391
C         3.70149260314822    2.69997366786101    5.78084807981002
H         4.54948813607167    2.96486296970871    6.39233868205706
C         3.47744019003789    3.36931305932597    4.58194544523894
C         4.33654821070453    4.42370277486373    4.08653469247570
C         5.49936904579153    5.02378144968573    4.51855565571067
H         6.09931055704847    4.85365332344929    5.38549838072406
C         6.88227835598400    6.81373726499278    3.46825253164961
C         7.82847689678089    6.90902364545268    4.48334356242004
H         7.75479340491436    6.30621120676355    5.37423033528804
C         8.88493332252420    7.79044427601021    4.35615791204816
H         9.62285344410184    7.86843599784407    5.13838356295750
C         8.99501673322965    8.57626514145920    3.21784155214043
C         8.05231434651443    8.48487894619933    2.20201187897018
H         8.14665296992497    9.09835003001597    1.32064494370240
C         6.99763822274477    7.60452348205148    2.32685746037321
H         6.25510758150226    7.51327397986059    1.55047103239631

