33
CSD_code = BEVCUC | q = 0 | S = 0 | Stoichiometry = C14H12Cl2HgN2O2 | MND = 4
Hg        0.43131270809161    7.06713571035621    1.58765815362584
Cl        0.10181539368071    4.84995896819341    2.01304022927601
Cl        1.40996280259088    8.85184865031986    0.54160044609779
O         3.79667090384237    7.54647622154890    8.99555895224422
O         5.24228104433535    8.00587102605932    7.34423040411118
N        -1.94187250508679    7.89327452360387    1.88605833539297
N        -0.04490328727892    7.98347932896376    3.90748399037125
C        -2.26376732627050    8.35423393193917    3.10101172807834
C        -3.55054980078719    8.80694005744602    3.39731346567897
H        -3.77872574507377    9.17390206170010    4.38639801748387
C        -4.52025547265069    8.77566167397929    2.40982733876500
H        -5.52329551871886    9.11901278103505    2.61422264004881
C        -4.17483312891331    8.29635501755330    1.15697694497467
H        -4.89557149809737    8.25306491649368    0.35640020342631
C        -2.86991725686986    7.86745638591856    0.94642497050942
H        -2.56063144088710    7.48686037412175   -0.01822520008786
C        -1.23395618818200    8.37759906848418    4.13002966118744
H        -1.54094609532235    8.77484931830678    5.10182512218344
C         0.92544171605024    7.95572373292683    4.89743362568730
C         0.63801282734576    7.61047431889869    6.22210675308930
H        -0.36865242158217    7.33558578704184    6.49996001528473
C         1.65277810981444    7.55975456770959    7.15335452180575
H         1.45387340632102    7.28420208573262    8.17814792449481
C         2.96390556483076    7.85754872203321    6.78702073486705
C         3.25362215068220    8.19634953018498    5.46581474303125
H         4.27038164284204    8.41843327227079    5.18370747258597
C         2.24507130608235    8.23489463661272    4.52769261100063
H         2.45330484586195    8.50382743929227    3.49962379610898
C         4.01640653419736    7.78278362675924    7.83297394026263
C         6.30669151264610    7.93874491730039    8.28181929208607
H         7.22560135373833    8.00127458862931    7.70450972995263
H         6.26269848144531    7.00012096083272    8.83811482250229
H         6.24134538131855    8.76860179774427    8.98888461386817

