27
CSD_code = BEVDEN | q = 0 | S = 0 | Stoichiometry = C12H9Cl3HgN2 | MND = 4
Hg        1.21178789083343    6.61263219778726    0.82717193483187
N        -0.45179901401546    5.84253555016526    2.56002327799089
N         1.81600095300268    4.39625176761639    1.88548561065805
Cl        0.21691635527001    5.71570093024073   -1.02326474073302
Cl        2.49097655170731    8.14284833753170    1.94450901620482
Cl        6.63245764523559    1.61815444819878   -0.02400952633694
C        -0.24505192633569    4.62268958395944    3.07231748998309
C        -1.14068366263179    4.04521088029727    3.97443728166498
H        -0.94617742825338    3.06030026318022    4.37075798850722
C        -2.27166392382544    4.75024803873002    4.34751825738264
H        -2.98013144933324    4.32451402114502    5.04217799015904
C        -2.47356635973590    6.01143981392594    3.81096353932689
H        -3.33956913032796    6.59825816150976    4.07164200694280
C        -1.53186912786066    6.51241391537537    2.92075713029909
H        -1.65276007242673    7.49413081782486    2.48185750797597
C         0.94808060288111    3.89312737353540    2.67011966805411
H         1.06434681135614    2.89607032202035    3.10363736325265
C         2.93274498339423    3.69530517432805    1.45931093463441
C         2.92564902030243    2.31563879413920    1.23086304890946
H         2.01567486997031    1.75053755332815    1.36529709478806
C         4.05944179068837    1.68079953468421    0.76667406519972
H         4.04963727248175    0.62000509836519    0.57100033839194
C         5.21682527911377    2.41485879087194    0.54386180981829
C         5.23835884306929    3.78792658175742    0.75911856857460
H         6.14003532839740    4.34903013353491    0.57145117765550
C         4.09806817712191    4.42398212524917    1.20023729650651
H         4.09766971992414    5.49178979069068    1.37748386935401

