33
CSD_code = BEVDUD | q = 0 | S = 0 | Stoichiometry = C14H12HgI2N2O2 | MND = 4
C         0.92976850395348   -0.47864059238052    2.11908976310233
C         0.79719718923324   -1.74561536751739    2.68764364295083
H         1.26224458511051   -2.59772755714359    2.21620082816540
C         0.06760506863358   -1.88647788125922    3.85535169896900
H        -0.05064209727421   -2.85597798907350    4.31520542162596
C        -0.50490300271955   -0.75839551403612    4.41952626688826
H        -1.08026898681971   -0.81619320794172    5.32924968036349
C        -0.32567831715141    0.46345950140350    3.78494499486357
H        -0.75875927321660    1.36634406737074    4.19584337403190
C         1.70218200279434   -0.31021896002068    0.89797464098153
H         2.10305729012845   -1.22506143067657    0.45399333709970
C         2.62077779669827    0.98363643285939   -0.80160442797302
C         2.39095563985681    0.14582563185762   -1.89621315559075
H         1.64896150025686   -0.63601816210988   -1.82532200437847
C         3.06488359149588    0.36448135259628   -3.07820849692311
H         2.89323772221392   -0.26380854882295   -3.93907732319775
C         3.98214168195094    1.40784295333781   -3.18579247665190
C         4.20784471000935    2.24665910780336   -2.09581277919353
H         4.91335002473995    3.05745667864367   -2.18288623452381
C         3.52503493181490    2.04299182496350   -0.91632867191071
H         3.70435978706418    2.68000920053530   -0.06163552323933
C         4.68765639897922    1.58898458118229   -4.48037898034915
C         6.19637070373363    2.90255735667695   -5.69013054192412
H         6.78544418406024    3.80047582664909   -5.52307034876900
H         5.49747017579210    3.04890523900828   -6.51625267095743
H         6.84381980773365    2.05523640320304   -5.92534203940063
Hg        0.58477809614749    2.78933975298311    1.34770185716222
I        -1.46997317091766    2.46237630587206   -0.23119893364908
I         2.32366228846227    4.01668108981442    2.85431069599589
N         0.36645936677136    0.60527159801972    2.66858864391777
N         1.92747584757048    0.83599273646262    0.39319372655674
O         4.56036001372094    0.85241370362774   -5.42717680415647
O         5.48862593912432    2.66169386609748   -4.48278715987333

