33
CSD_code = BEVDOX | q = 0 | S = 0 | Stoichiometry = C14H14Cl2HgN2 | MND = 4
Hg        4.46422202368210    6.57592163536921    7.30727201623870
Cl        4.13514835973002    6.07582799765602    5.11125885685622
Cl        5.26186489917840    8.00275261121791    8.91567505951960
N         2.65435411693679    5.64630490264274    8.77507584763575
N         5.08533113189758    4.38082902587496    8.35198279693969
C         3.04673470576688    4.64244029713070    9.57000358913714
C         2.27617610189524    4.22559517820099   10.65747597221796
H         2.62124822648719    3.41611845381905   11.28253105540064
C         1.07929621552020    4.86713903299376   10.92186261014420
H         0.46887476364753    4.56730205165963   11.76052387940195
C         0.68116502337329    5.89938196713864   10.08744733642364
H        -0.24545619508162    6.42545195913522   10.25156891591089
C         1.50695702006814    6.25155019646443    9.02798694558497
H         1.23156658887307    7.05151371179416    8.35292553446162
C         4.30547743620436    3.97552976829188    9.27523077994057
H         4.54618796874411    3.11706956109802    9.90770633796202
C         6.25790828583942    3.72462079932597    8.01738846679794
C         6.43369123888776    2.34372747401767    8.15489330473387
H         5.62473809598062    1.72923573122879    8.52174404656297
C         7.61792677753550    1.75514495839177    7.76352842693948
H         7.73658138708042    0.68536826386969    7.85961621746698
C         8.66193791959743    2.51342220013297    7.24261667000443
C         8.47945888682813    3.88628236337387    7.09845432739872
H         9.27513622785571    4.48828625395727    6.68529592302021
C         7.29379328393542    4.48356505622036    7.46597301254660
H         7.15624345022570    5.55554844346630    7.35620022386152
C         9.92639064885993    1.85531159000057    6.77916873076919
H        10.14368305442839    0.98647653736415    7.40351156842530
H        10.75965033527492    2.55516475738677    6.86054821117919
C         9.78537350222134    1.40662643417198    5.32212812182317
H         8.97151819713485    0.69235448000475    5.22185800302652
H        10.70467427909833    0.93730453961476    4.98085617762397
H         9.57134604229438    2.25983176698891    4.68309103404483

