33
CSD_code = BEVFIU | q = 1 | S = 0 | Stoichiometry = C13H15ClN3Pt(1+) | MND = 4
Pt        1.44495707728060   12.80496349136517    7.06717119480224
Cl        1.36306206439403   15.04442674129255    7.39072859737543
N         1.51806201177120   10.76250336469071    6.77511015178752
N         3.42652231054125   12.91470243567566    7.64395761262508
H         3.51631984439768   13.89569851304504    7.93773799450294
H         4.07901157850461   12.75715538466411    6.87308748900279
H         3.69089311309579   12.31373675638504    8.42665840399115
N        -0.53855091217559   12.93573206597019    6.50038235574290
H        -0.67305472297212   12.81310717843160    5.49457873588584
H        -1.18400646568080   12.31847070659299    6.99605267988787
H        -0.77053093230127   13.90984985882113    6.73170711444279
C         1.86085542256728   10.26775202338422    5.61856879655262
H         2.10496282873980   10.97173406182663    4.82958040788157
C         1.19916027305235    9.91815222352975    7.81052610690279
C         0.88856458767705    7.72316635333943    8.77002734351414
H         0.90217281495757    6.64929353916292    8.68637705255886
C         1.22976931925823    8.51037317121109    7.65797447930467
C         1.60683049427227    7.96604856848094    6.38009956409972
C         1.92843440313511    8.88139023947226    5.34514224276928
C         0.83692221502614   10.48417285409307    9.04334949209498
H         0.82263561933128   11.56990028543113    9.13353219216042
C         1.67617446866173    6.59491546991704    6.09501515611347
H         1.43839845093466    5.87056560057386    6.85635599694554
C         2.30560901409326    8.41063724366640    4.07365658815831
H         2.54641833555611    9.12496280247900    3.30100233756722
C         2.36339167077137    7.06375173967543    3.82916906887642
H         2.65176698628534    6.69754520992587    2.85661714345374
C         0.50980265955407    9.68560309004555   10.10890984431739
H         0.23255558138121   10.12524675667023   11.05372529569336
C         0.53678376516286    8.29587998128459    9.96740027944200
H         0.27908402565356    7.66998153089437   10.80705633147701
C         2.04661177162737    6.15670004204796    4.84596818352906
H         2.09451032544658    5.09778071595058    4.64417376654412

