117
CSD_code = BEVGIT | q = 0 | S = 0 | Stoichiometry = C46H64O2P4Pd | MND = 4
Pd       -4.49501987073307   10.22395332355069    4.07115921840343
P        -3.50931921400738   10.19070968951519    6.28914005878115
P        -5.77098871500259    8.20535657330995    3.77142637506286
P        -2.88840051864387   10.14118302481265    2.28083589554647
P        -5.79550189750645   12.26093990450139    3.84728460117990
O        -3.39927054909690    7.62705398055079    5.17879238564133
O        -5.32906264967751   11.16822694336524    1.31628249722180
C        -2.03303365198533    9.11580833832224    6.35983465710896
C        -0.79896151733265    9.43964453118307    6.90557269830409
H        -0.65769032504019   10.37891271977968    7.41684578678696
C         0.26526477692714    8.56480923060422    6.78759863975052
H         1.22250673743172    8.82112131458713    7.21785604011134
C         0.11549982815460    7.36069521969960    6.12231373245621
H         0.96519132785811    6.70141323201641    6.04825545339619
C        -1.10406816838287    6.99848995647083    5.56669041827712
C        -1.36184357275863    5.66154916962831    4.89581399637059
C        -2.44621922868266    5.85669387389381    3.85040077388892
C        -2.54356471195578    5.10222332514861    2.68819060491646
H        -1.78492609817606    4.37587635719390    2.44519497084950
C        -3.61158332964505    5.26535434024291    1.82432914111548
H        -3.66060193194363    4.67619778632456    0.92023747320737
C        -4.62464468471835    6.16078281074307    2.11592809999346
H        -5.44883232681480    6.26964330627673    1.42981201743055
C        -4.56837360423356    6.92675734591675    3.27114701256646
C        -3.45358061142392    6.78349905774300    4.10829706906278
C        -2.16837894475276    7.88629290626297    5.70183680753642
C        -0.08748062950327    5.05641378440105    4.30465425592112
H        -0.29668205004121    4.08638027722652    3.86216866918051
H         0.65475957543431    4.89714878648726    5.08188285542062
H         0.33215973663455    5.71072908277444    3.54334778640990
C        -1.92179070494154    4.70262308364644    5.96712574907384
H        -2.15704765172929    3.73804833157777    5.52132224825333
H        -2.83036688106625    5.10909872516678    6.40726562092656
H        -1.19015758078713    4.55708967340698    6.75962022145605
C        -4.34598350739420    9.62718640538370    7.85551826690539
H        -5.22214775830234   10.26845288625877    7.98722416699082
H        -4.71064927515313    8.61627754335298    7.65329886491631
C        -3.49879138313161    9.62325584523759    9.12035371326115
H        -4.05938676370100    9.17225147289210    9.93838999701990
H        -3.22911255898434   10.63323348376242    9.41782971541278
H        -2.58627490878797    9.04872795754214    8.97405142285453
C        -2.85559281023578   11.84066830837855    6.82008406437649
H        -3.74141335186969   12.43396744226861    7.07001757178283
H        -2.22786706318770   11.77861203204271    7.71046423425451
C        -2.11436275548779   12.49039093276343    5.65939591363844
H        -1.94610309228748   13.55203028134205    5.83724563544540
H        -2.70951505026840   12.36934105437835    4.74693476180442
H        -1.15097929573947   12.00913150975106    5.49844194457440
C        -6.48012688891463    7.35180823891559    5.26736057082386
H        -5.69029281859774    7.37571846869580    6.02089870538839
H        -7.29465827284757    7.98203392386450    5.63555762659813
C        -6.95962100100994    5.92091846713812    5.06542311732890
H        -7.21582744977307    5.47721889585598    6.02708739783451
H        -6.18209892955318    5.31373381035982    4.60466031673402
H        -7.84475123218987    5.88298991705143    4.43551610919463
C        -7.12798332509339    7.91513637142780    2.53771498884942
H        -6.75702756984768    8.26925125665901    1.57136711209888
H        -7.35386435832592    6.85071617108125    2.45089878223538
C        -8.37368521429805    8.70083037971519    2.92399562121980
H        -9.08871412078794    8.72823699364507    2.10277742738919
H        -8.10083138712064    9.72584452881232    3.17221129381258
H        -8.86279037246499    8.25719803191299    3.78870904825878
C        -3.78556182827428    9.46860108617510    0.84064264032859
C        -3.43385524335896    8.34058093855750    0.11376058636722
H        -2.54162978856088    7.78900377940990    0.36196232727099
C        -4.23747615299483    7.90188722548618   -0.92300823494893
H        -3.95916052884911    7.01950905192276   -1.48053981281690
C        -5.38598902261841    8.59221225066185   -1.26650291478232
H        -5.97525395155799    8.23986251416120   -2.09763846547692
C        -5.77678538031215    9.72100319220832   -0.55767397846517
C        -6.96306440747125   10.58966525976047   -0.93827551890936
C        -7.52931125566496   11.19970558016838    0.33098276130069
C        -8.86204343220916   11.55442467748114    0.48952731383980
H        -9.57596302724697   11.35396440386089   -0.29293452271115
C        -9.30017535927569   12.17761215275380    1.64480568447486
H       -10.34094965801924   12.45057079600721    1.74183634531997
C        -8.41750094743230   12.45317661364152    2.67281096007810
H        -8.78191333772985   12.92821983132473    3.57009809457911
C        -7.07820991407069   12.10965384931804    2.55439245113140
C        -6.65138940226506   11.49132968959258    1.37187723733960
C        -4.97908834822856   10.12471127607791    0.51050655947505
C        -8.01919004881408    9.81694289867252   -1.73003330705286
H        -8.41724600918094    8.99407505897781   -1.13992323085204
H        -7.59266177135158    9.42124901911209   -2.64767744653923
H        -8.83588994736330   10.47349822331367   -2.01697818348979
C        -6.42743528972143   11.74365227643085   -1.81138837939262
H        -5.97669319330021   11.34888832377333   -2.71996583315382
H        -5.67283436319263   12.31317233137877   -1.27225295113390
H        -7.23868394794067   12.41662384842055   -2.08247591277067
C        -2.29515502859397   11.73457947575204    1.52021679974811
H        -3.18598925702216   12.35593657533789    1.40817243015855
H        -1.65534623671153   12.22105691137561    2.26195824814959
C        -1.57359546437718   11.61871217379598    0.18451385956031
H        -1.40489304417339   12.61116295765512   -0.23250525360002
H        -2.16583995407013   11.04492419669990   -0.52648844776382
H        -0.60598623542391   11.13590558446435    0.29549203556771
C        -1.32847798327646    9.13554089642057    2.22520344184611
H        -1.59579940675313    8.12097561293698    2.53503949520542
H        -0.92986485048483    9.09181260997695    1.20993742158368
C        -0.29441618510056    9.70581656799716    3.18637054571750
H         0.52631371617882    9.00585946423675    3.33759890333230
H        -0.75749904731250    9.90139672715871    4.15280983282568
H         0.11743710740949   10.63920657317966    2.80833265287738
C        -5.13367931419677   13.94274523753707    3.39494718829748
H        -4.40167934173989   14.20509306455022    4.16409845905961
H        -4.58614613976926   13.80724900338581    2.45812577059289
C        -6.15536329607043   15.05989139735110    3.23466525084710
H        -5.66396727938058   15.95910590088795    2.86477990921060
H        -6.62598116747934   15.30332337583908    4.18362284937899
H        -6.93034225949696   14.77754547732900    2.52484386019270
C        -6.77354009540672   12.67165678596031    5.36597925819037
H        -6.04101852309497   13.05275632698901    6.08523626534039
H        -7.51462791459135   13.45338269030727    5.19161313103639
C        -7.41745272112821   11.40479766642573    5.91296962606052
H        -7.77490728380189   11.54661546395044    6.93234260021554
H        -6.67614033805948   10.59748903711814    5.90178125878942
H        -8.25702474558467   11.09858347996295    5.29091611601462

