103
CSD_code = BEVGAL | q = 0 | S = 0 | Stoichiometry = C40H56O2P4Pd | MND = 4
Pd       -6.04529514435078    8.18998205538496   11.32612641790594
P        -4.27788588090622    6.87781562198511   10.36252381576094
P        -5.24254961090717    9.66732483706201   13.09493536234285
O        -3.40098033875451    7.76383883606932   12.77446809379031
C        -3.28048843307422    5.83008034920410   11.48965790681907
C        -2.93472252888299    4.49358299740714   11.35639049376043
H        -3.24850245344637    3.93036889605411   10.49135630619882
C        -2.17016170297438    3.86966504717498   12.32895668677994
H        -1.89234074478633    2.83285320700941   12.20692388414136
C        -1.75872152784233    4.56275113465612   13.45486436055898
H        -1.16248956747300    4.06896503498614   14.20778830742245
C        -2.12476370950515    5.88739484131276   13.62985317166690
H        -1.84054101872121    6.42975269871712   14.52040482598091
C        -2.87965358189767    6.50871468792314   12.64872441682399
C        -3.45507607340203   10.01174030124018   13.25271329153136
C        -2.66587051350033    8.86753797141593   13.05496254309582
C        -1.28259399731094    8.93702079523796   13.06140028695051
H        -0.68873794959862    8.05309256103945   12.87746092238991
C        -0.67501683285341   10.16212746988724   13.28812921658129
H         0.40309462428248   10.22416905884679   13.30513703261596
C        -1.43899161190955   11.30058040416510   13.47695098279162
H        -0.95455880085501   12.25103876000371   13.64568702355790
C        -2.82337064088108   11.22930711327289   13.44474853077552
H        -3.40582663668863   12.12775210361618   13.57773112528145
C        -4.60874122963658    5.72208982956236    8.95196321693355
H        -4.79060433000293    6.35210583864770    8.07640646157687
H        -3.74572345027143    5.08790019376458    8.74042455611155
C        -5.84943402256648    4.89155130102603    9.24775273779672
H        -6.16881529623778    4.32219390236360    8.37554798273251
H        -6.66055883866415    5.55561533664921    9.55056566447040
H        -5.66576190809261    4.19881167721835   10.06717404997529
C        -2.87660417547120    7.87021742146520    9.63767612088933
H        -3.30523480042626    8.40499748645679    8.78504231225961
H        -2.60040221528545    8.62659805307553   10.37775775776639
C        -1.64045653458562    7.09472017034457    9.20225493376834
H        -0.87662226462995    7.78741530775012    8.85078190129369
H        -1.87037529620002    6.40759710744370    8.39194314761043
H        -1.22661593103218    6.52235934313953   10.03013785578508
C        -5.52857180110450    8.93772902183493   14.78432567990378
H        -6.61408753567054    8.91785317164659   14.91959324614017
H        -5.19235500260914    7.89889403314370   14.72493358839225
C        -4.85969047535690    9.63728259038194   15.95912749319442
H        -5.08041739594844    9.10254372762152   16.88251405120645
H        -5.21674473643739   10.65828768946574   16.07092152555916
H        -3.77961257683367    9.66692632173106   15.83026627528885
C        -5.95988528311211   11.36596696800210   13.29417177413909
H        -5.68977179558166   11.80826547844802   14.25527874968526
H        -5.52961260153442   11.97729047706346   12.49635532903584
C        -7.47245886935927   11.30667099036297   13.12589926511418
H        -7.89620981186632   12.30099829665117   12.99074330710628
H        -7.94324328950717   10.85230243581418   13.99561879470027
H        -7.71671306077753   10.69829170872233   12.24995489818599
P        -7.81268784893656    6.87779842495869   12.28973330417434
C        -8.81010151617361    5.83007156055095   11.16260339696970
C        -9.15585822245809    4.49356919116353   11.29585625167274
H        -8.84208179674872    3.93035205131123   12.16089084214356
C        -9.92043953815332    3.86966459968712   10.32329823838311
H       -10.19829808629137    2.83286326754397   10.44534092101425
C       -10.33192128009260    4.56277237217950    9.19741926734498
H       -10.92819204999609    4.06900482775660    8.44451433655535
C        -9.96589007822335    5.88742052133655    9.02244330790034
H       -10.25012519588155    6.42978643337458    8.13190028624266
C        -9.21096973941370    6.50872341733546   10.00355918227051
O        -8.68963314261686    7.76384389938762    9.87781279316029
C        -9.42474041764144    8.86754739879227    9.59734285175174
C        -8.63553161376515   10.01174148972975    9.39955877090558
P        -6.84805734724872    9.66732043822894    9.55732553646754
C        -6.56205805187637    8.93771777872713    7.86793401567148
H        -5.47654509541621    8.91789365949227    7.73263441750267
H        -6.89822136375365    7.89886702091072    7.92734712400375
C        -7.23100883391897    9.63722125051131    6.69314151389212
H        -7.01025369406979    9.10250180410570    5.76974973340321
H        -6.87403513992832   10.65825369952913    6.58134524822235
H        -8.31108684906352    9.66678308527441    6.82201738872831
C        -6.13072513242772   11.36596063081523    9.35805674280934
H        -6.40083806025653   11.80823949575075    8.39694027345398
H        -6.56100255825568   11.97729684370466   10.15586024045776
C        -4.61815146782272   11.30667548321046    9.52633297546000
H        -4.19440638575028   12.30100905594735    9.66146295213823
H        -4.14736310530445   10.85228701347071    8.65662622432686
H        -4.37389464333597   10.69832056833794   10.40229313952364
C        -9.26723224091110   11.22931195651397    9.20753131695871
C       -10.65161217350134   11.30059757050964    9.17537122163679
C       -11.41559011777142   10.16215285006409    9.36422673225868
C       -10.80801770517913    8.93704336470673    9.59094576747713
H       -11.40187556414335    8.05311731635685    9.77489249808401
H       -12.49370168075057   10.22420488631608    9.34725569378042
H       -11.13604084804505   12.25106430694277    9.00666685969964
H        -8.68477474465551   12.12775751352334    9.07455738325152
C        -7.48183693766626    5.72205886942533   13.70028407134464
H        -7.29996823831612    6.35206652909799   14.57584501513590
H        -8.34486007783679    5.08787445047760   13.91181829039996
C        -6.24115017685748    4.89151383741582   13.40448759114462
H        -5.92178735400995    4.32212820634710   14.27668055412482
H        -5.43001285343127    5.55557497410252   13.10170341026030
H        -6.42482076860168    4.19879915450999   12.58504484892329
C        -9.21396428346417    7.87019836103629   13.01459406410024
H        -8.78532048642327    8.40498453434730   13.86721671238114
H        -9.49017822600306    8.62657472706396   12.27451276189893
C       -10.45010473263234    7.09470577098124   13.45004376626040
H       -11.21394673852720    7.78740569575144   13.80149137483669
H       -10.22017863290560    6.40761429383955   14.26038033204313
H       -10.86393795850180    6.52231088410677   12.62218077530203

