52
CSD_code = BEVHAN | q = 0 | S = 0 | Stoichiometry = C25H18Cl2N6Zn | MND = 4
Zn        3.39079347997220    4.87635601432742    9.41348109767481
Cl        2.91154621434546    2.86866793306754   10.12359501968187
Cl        4.78682440634519    6.43870075622390   10.17010494196776
C         4.55184534851439   11.48785747187459   14.34604574229937
H         5.31418820037980   11.47561548227635   15.11545232459505
N         1.95005547744922    6.20615177085224    8.69810493801429
C         2.60761988097282    5.40442060908802   12.67979457036007
H         1.99052685614974    4.65454153294351   12.20918524437795
N         4.10313386456995   10.30060962173333   13.98403478698492
N         2.17311941634926    8.05323043322802    7.50885455320725
N         3.12157481094016    7.73110966187003   13.06472831237304
C         3.16200864347831   10.23680439553349   13.03825152765910
N         1.67056790613889    8.78926210873301   11.76565250179341
C         2.66449416922206    8.94751232065843   12.63601755724105
C         2.36124360418729    6.76391273136551   12.42489837252911
N         3.87820230428611    4.85704277789456    7.34127761223610
C         0.51633378420295    6.93204722192294   10.59899695114365
H         0.34402882538540    5.86916777184611   10.76409153942856
H        -0.42800178395128    7.47727347040121   10.62196405439733
C         4.63828564998649    4.02885839984452    6.64666566972240
H         5.02156537099982    3.17617210496060    7.18979194280317
C         2.51999023555120    6.74318837094217    7.60778456433727
C         0.85029456540133    9.63514051563071    8.78215298394362
H         0.22201770991274    9.81760168539210    9.63749741632830
C         1.46127588007395    7.47534393544126   11.62675665736751
C         1.33433891244719    8.33503629469426    8.58316965252009
C         2.58321404631845    9.05420253401120    6.67864468765113
H         3.30519559173730    8.80658906243869    5.91922005793591
C         3.35244261287312    5.94067483743001    6.74820644490229
C         1.23136473295148   10.62156926082086    7.92000274121513
H         0.88709766770139   11.63489392136281    8.04656938325691
C         4.40152142916163    6.08236960765734   14.13251239000861
H         5.21451864965383    5.81237482339732   14.78682544582065
C         2.64285485856962   11.38986722302614   12.43014952596013
H         1.88561164257643   11.27890971079266   11.67168465046031
C         1.20711439877538    7.13975699135998    9.29692888495728
C         3.56972576007801    6.18742151336990    5.38822389988584
H         3.08316737073737    7.01181977009636    4.89282463275956
C         4.37388791636403    5.32442416116584    4.66930919040294
H         4.55267585917468    5.49904552488526    3.61875234526814
C         4.93246021968700    4.22606146977176    5.30786228498992
H         5.56628155246166    3.53346552868598    4.77911677884297
C         4.13561009385897    7.39411945505610   13.90252545663280
H         4.67904798904392    8.21815453152063   14.33611770231870
C         4.10200888538546   12.68077126802214   13.80570878514809
H         4.50304612263925   13.62449257831205   14.14083085158099
C         2.12146144780454   10.31761978189284    6.86398723152226
H         2.45661754969225   11.10162972117928    6.20433682205295
C         3.62607409190932    5.06814521423687   13.52298242693695
H         3.84976381100242    4.03237423832996   13.72263428920871
C         3.12094311658835   12.62101965796496   12.82246651829832
H         2.74051884993824   13.52770222047431   12.37282603699282

