69
CSD_code = BEVKIZ | q = 1 | S = 0 | Stoichiometry = C24H34ClN7OPRu(1+) | MND = 9
Ru        3.21846568036393    3.00246470718218   17.25060262344242
Cl        5.20169576313403    4.20664909384565   16.88497300351961
P         4.61926869918784    1.51442813341427   18.31129229064029
N         3.40855301657955    2.57183541492432   14.49312492703381
O         3.62120189317217    3.06922051333274    8.21548663417446
N         4.13462430461841    1.92101071787614   13.58700452624416
C         1.92162749125872    4.89984780510865   16.98920772836171
C         4.94107014410365    1.07502547533205   14.25723819121143
H         5.66091646384777    0.41693024541826   13.82058393002323
C         4.01976391644273    2.16678772468955   12.21408284600176
C         3.25423599424771    3.59356758210993   10.44981529663671
H         2.76241236686876    4.48616949339817   10.09981434851159
C         6.46832982493861    1.46864813366439   18.11066028623056
H         6.71093791820775    1.22383166463887   17.07189761215303
H         6.86700136471590    2.46359081379286   18.33708682052603
N         7.05252771234398    0.49172813162014   18.99600757117847
N         5.17875257584948   -1.04215698256258   19.10283569853195
C         4.42861533164221    1.55070945671954    9.93114922183908
H         4.84111075195104    0.84969734279445    9.22445449902256
C         1.28302844238922    3.85531792295390   16.32419671559948
C         4.54353776759034    1.28064575304143   11.27990004352310
H         5.03235782196275    0.37172280400080   11.59342767237364
N         3.77929065206961    2.13251822175041   15.63784344207239
N         4.71267930069929    1.20679827745392   15.54262749071452
C         0.97633928623975    2.63889175577283   16.99625921000509
C         1.89745732300563    3.62478987481740   19.05169358477315
C         4.28562430906490   -0.31713565169762   18.23169340997524
H         3.25009102479740   -0.50670835654066   18.53810535477030
H         4.42033579870774   -0.66446882982589   17.20281548892578
C         4.14188008828263    2.25084683490901    7.18739334761499
H         3.89399330560013    2.75878624091341    6.25762567292951
H         5.22774694859743    2.15261358432366    7.26812005679689
H         3.67881000383496    1.26034560838074    7.19337136368955
N         5.44464802756210    0.67393153963293   20.79366743401063
C         3.78459107550561    2.71216006708916    9.49473484384506
C         6.57374204307493   -0.85337068050209   18.73195377774154
H         7.17712157938870   -1.55342140908777   19.31620049508867
H         6.69378753206966   -1.07536448539239   17.66911254273809
C         2.82265541718407    5.99358862696181   19.09911255030434
H         3.21770076715729    6.68736714004770   18.34937462439303
C         2.24450332352478    4.80242117365392   18.37456086074525
C         6.83682509012051    0.81609108401790   20.39455662438325
H         7.16230573086163    1.84197080299238   20.58176132310931
H         7.43626312464524    0.13446372690579   21.00375935564469
C         3.36898490555215    3.32691972089944   11.79074946005974
H         2.97557364445211    4.00877394548505   12.52706171999388
C         4.60112159649086    1.66539025976487   20.16789307885140
H         4.95430829613695    2.66528423268544   20.44552785796343
H         3.57551552158583    1.53717666005772   20.53381958802845
C         5.00353049563409   -0.67908619794353   20.49923548792929
H         3.94902483153737   -0.78205788690406   20.76875976836445
H         5.59304414685872   -1.36959833688657   21.10793984188934
C         0.21395884491710    1.55638824186574   16.29448969833887
H         0.46960205206192    1.51853304630339   15.23724624431438
H         0.40671245829274    0.58363336791500   16.74246912101924
H        -0.85541257173106    1.75931676196691   16.37284288136757
C         1.29409935440984    2.53813601282554   18.36537588601944
C         1.69925952877040    6.69612743971478   19.87050701362408
H         2.09033444236478    7.58631317910010   20.35485146918695
H         0.89545131771290    6.99395457483431   19.20051883291748
H         1.28756718484442    6.04089171755695   20.63524902088174
C         3.97253657804875    5.60542109053422   20.02935034424063
H         4.44727651744476    6.50338189876810   20.41454299320512
H         3.62267363177612    5.01989280029069   20.87662691064485
H         4.71867842016739    5.03451538832018   19.47689722136916
H         2.12058442126131    5.82947082729221   16.46765051824890
H         0.97213365347316    1.66534950701771   18.92498433181584
H         0.97716831339206    3.97785059633759   15.29136278245935
H         2.03044541747875    3.56173405867251   20.12546258643822

