53
CSD_code = BEVLUJ | q = 0 | S = 0 | Stoichiometry = C23H19CrO9P | MND = 6
Cr        0.42954656490750    1.86143413436876    2.21916735949385
P         1.22122738911979    1.08578225276599    4.26621991870018
O         4.90300614004336    0.59970608826953    6.54859106284052
O         3.99383327207557   -1.07937912338946    7.73455357436769
O        -0.02008181171635   -1.34695812650633    7.95571371356393
O         1.64552498624398   -0.00412570881049    8.64406970758948
O        -1.62047705069223   -0.33786372505433    2.01378580150491
O         2.30145714888939    0.17432643939703    0.56873404280527
O        -0.58555593891433    3.03250855964597   -0.35518103859789
O         2.41094134749456    4.12485879265807    2.42200236885493
O        -1.48629608919981    3.68485631314254    3.66302769170023
C         2.79099354650669    0.06655177756299    4.48828030794226
C         2.29843565589133   -1.20060191505355    3.79972092371271
C         1.04936912578061   -1.47764495233724    4.18730119400577
C         0.56031843986759   -0.42577687351553    5.17350728035280
C         3.22736886870041   -1.97829071676832    2.93678237434783
C         0.18391477369598   -2.64611398270575    3.87897626857460
C         2.75006844861119   -0.19055906048325    5.97185387994310
C         1.48650983873930   -0.44942974641702    6.36318571006415
C         3.98761224937421   -0.15469897554396    6.76973067997628
C         5.13439251203708   -1.09206527931451    8.58131588293055
C         0.95590624024046   -0.67934443098316    7.71679832621659
C         1.19889094003169   -0.15581963765677    9.98342377931349
C         1.33044382956585    2.33416563754828    5.57593946646746
C         0.20859529590762    2.60201293723180    6.35419684217185
C         0.26797310576984    3.57479417201155    7.33430886775152
C         1.44096963826607    4.28618502866949    7.53223044287849
C         2.55439120921250    4.03027212223439    6.74822706395866
C         2.50221030307132    3.05817771469503    5.76598142859467
C        -0.83650363185350    0.49487420923810    2.11075435404265
C         1.61030508564176    0.80016430379971    1.23779369277935
C        -0.19827688737803    2.57653471157752    0.62548681370623
C         1.68457519571939    3.23920650527694    2.35404902282439
C        -0.76014330523981    2.95875409835584    3.15047975083720
H         3.73709383511466    0.45771757779013    4.11792774844451
H        -0.49864589095442   -0.48410262508878    5.41826754712028
H         3.63179312894248   -1.34803142986794    2.14622774864075
H         4.06486804454518   -2.34506215483476    3.53131137049109
H         2.72330887947739   -2.82655724559102    2.48246451131176
H        -0.76442862917571   -2.31470840831641    3.45815276869650
H         0.66399279981525   -3.31854951791863    3.17376246056259
H        -0.03303020248967   -3.19143407873800    4.79751508557358
H         5.07863796023088   -2.01318285441107    9.15568677107622
H         6.04946617380208   -1.06194259385826    7.98610843443664
H         5.11652229898937   -0.22575276254194    9.24563300469277
H         1.75995932883009    0.56324949375323   10.57457075832104
H         0.12709144345260    0.04267269031909   10.05016532352945
H         1.39109910647822   -1.17253884353665   10.33236483804377
H        -0.70366275809950    2.04284539581990    6.18629422244454
H        -0.59945882974978    3.78007096973834    7.94426284637658
H         1.48569647048501    5.04497251529332    8.29938748603419
H         3.46591103199531    4.58748786829058    6.90401160277445
H         3.36903937194552    2.84985245981480    5.15377691518741

