36
CSD_code = BEVLUK | q = 0 | S = 0 | Stoichiometry = C10H22ClCuN2 | MND = 3
Cu        3.92713573429670    2.88215601517973    7.27885986013794
Cl        4.43572784792001    3.06876990938619    5.16117612532470
N         2.34389064874859    3.51121502132665    8.43256535344855
H         2.74727761827534    3.86737225410587    9.29695958266835
C         1.46166466733322    2.38141791262127    8.73449659500759
H         0.61441977341808    2.70933164853975    9.35541805172082
H         2.02754229698697    1.62885085716658    9.28873832031795
C         0.93837528463771    1.79980457043731    7.42612687201745
H         0.31331196335550    0.92902422055426    7.62953459913642
H         1.79237124819834    1.48517758465136    6.82044963627556
C         0.15632808816958    2.86582681589868    6.66468940285441
H        -0.17594402803844    2.47046522644556    5.70482797411370
H        -0.73055531212637    3.14998639569746    7.23837262440954
C         1.04639584064960    4.08562119384443    6.44753631863285
H         1.89458242664993    3.81000087906221    5.81591079902339
H         0.49310764555314    4.88371032074760    5.95204082320139
C         1.58258147830255    4.58569996992966    7.78315581978299
H         2.24689596819520    5.43725051491561    7.62625541645199
H         0.74729772819956    4.90060106054278    8.42706082938227
N         5.43781865631646    1.63401170269997    8.07879553812767
H         5.35784519520912    1.45466642900229    9.08001830623512
C         5.33751087197642    0.35535063285401    7.36855362442186
H         5.38435148751706    0.57823524855689    6.29995587003302
H         4.36046003059519   -0.08509124031474    7.58477376705782
C         6.45659283609399   -0.60846632399841    7.75797007556822
H         6.37198040345929   -0.85982585055433    8.81989533909849
H         6.35663933097819   -1.53193312667784    7.18641299499457
C         7.81323452660268    0.03773400852272    7.49001878641312
H         7.92096653384322    0.21509212311130    6.41843926256590
H         8.61926984314197   -0.62722754677107    7.80681295807769
C         7.90171978613627    1.36939972004023    8.23077820106930
H         8.84332116810356    1.86939215957862    8.00106889813543
H         7.87001027732343    1.19264420804245    9.31048568584521
C         6.73514821183726    2.26747894626483    7.82356492009138
H         6.77123903456957    3.21409176512092    8.36888269224160
H         6.78028488755897    2.48616477349815    6.75409807603027

