35
CSD_code = BEVMAS | q = 0 | S = 0 | Stoichiometry = C14H14Br2N4Pd | MND = 4
Pd       10.47306820514467    9.61378823835053    9.69111838757747
Br       12.13845616831411    7.88141846173052    9.74211795104556
Br       10.81864452150174   10.14676437009178    7.37293862475210
N         9.73767325636219    8.28966052005401   12.31448242486931
N        10.46360774483396   10.30452104014418   12.55098225519557
N         9.36499697653504   12.18651089666986   10.58876183690359
N         7.99401934917490   11.28343879577107    9.19329500074438
C        10.17533282588175    9.35357917478973   11.63132159353772
C         9.76538656744448    8.55048592926041   13.66047192050612
C        10.23007280924152    9.81077899385999   13.81532296440353
C        11.06527174684496   11.55071035370734   12.26681907741176
C        12.21696946135065   11.89590023230619   12.96782929904123
C        12.84303178011072   13.10822524231362   12.75130974895304
C        12.32395507386303   13.99703579982959   11.82501025801168
C        11.18196688874054   13.66811308740059   11.12055821038072
C        10.53950441105407   12.45113469220695   11.32811561126937
C         9.16291896484297   11.09320281531869    9.81594094057086
C         7.46309493805745   12.49684489361399    9.54878889750998
C         8.32485620248214   13.07275549269323   10.41706190458083
C         9.34818955464463    7.04424254141952   11.70874686289901
C         7.41966369674490   10.36030229706634    8.25108647692975
H         9.45923931866565    7.82913376978180   14.38962713799645
H        10.39124480036276   10.39540411934997   14.69727960606145
H        12.62564941109795   11.18844852443177   13.67366580161567
H        13.74086560422639   13.35147166768927   13.29701236696497
H        12.81286177306312   14.94055781153762   11.64114034397985
H        10.78147957343616   14.34645824960396   10.38218144290684
H         6.53001536659347   12.84911233230026    9.16016300945297
H         8.27884227427627   14.00861567035935   10.93444434209850
H        10.11221263838040    6.28407670636930   11.88237946759915
H         9.25946734046224    7.19843325463997   10.62512599079769
H         8.39427039052384    6.70702722834613   12.11514011321852
H         7.97589681378732    9.41520464352072    8.30819639469864
H         7.51372148162885   10.74933923809510    7.23542642660797
H         6.36845207032603   10.18700291537858    8.48303730890887

