60
CSD_code = BEVMUL | q = 0 | S = 0 | Stoichiometry = C25H23N7NiO4 | MND = 6
Ni        2.45038442060247    2.63427486939454    3.96913320872442
O         1.71102460372722    2.11165063096577    5.60180044024874
O         0.04945833241127    1.47673637927489    6.89286291921175
O         2.72377900984852    0.80355878014280    3.60660884276167
O         2.06618989534740   -1.14352066123358    2.82265045579699
N         0.19803624891782    1.93816286788621    3.30394152553770
H        -0.40835017058446    2.44284930412606    2.66103650140031
N         4.47526001118031    3.07831146009347    5.15955555042503
N         5.64898973348080    4.15564515167057    6.71210039824408
H         6.10427757676364    4.91519499380584    7.18925419885763
N         2.00664373474054    4.55225082160328    4.38900108802749
N         1.44604729578848    6.68346643779593    4.12264733134436
H         1.17703216167949    7.53667253374273    3.66168121906575
N         3.14302625082441    2.91102115477744    2.15317978718371
N         3.00840138807431    2.75191465584691   -0.05804626444064
H         2.60796314184650    2.77282285072870   -0.98121728109618
C         0.50163229166380    1.78819328791778    5.80382562311772
C        -0.47941990343528    1.88278322785507    4.60067788809287
H        -1.18458674437098    1.04364350532254    4.67159301437282
H        -1.03864177655474    2.81220236849945    4.75251815337143
C         0.46080082644574    0.61389992374218    2.73614950059316
H         0.44687451528044    0.67610691566183    1.64247568220049
H        -0.29124132728104   -0.12593552751156    3.04041958632497
C         1.86044330636841    0.02617559754028    3.10060795500383
C         4.99361152388711    4.21482031184934    5.52147899406517
H         4.94213082112198    5.12323394330640    4.95000789808180
C         5.99802927398348    2.21018913482625    8.29305636208592
H         6.55938193153734    2.73073919697837    9.05502061154103
C         5.69982315199550    0.86682466632121    8.40228658797514
H         6.03373187673881    0.32321624327185    9.27408207683202
C         4.97500738978013    0.19135549348616    7.41610791339676
H         4.76819489966069   -0.85900342547466    7.55294410580916
C         4.51645479648763    0.82993228785508    6.28440116259903
H         3.94837850791354    0.32947279085948    5.51743724548072
C         4.79882735977937    2.18659320199174    6.16199800680000
C         5.53893955492215    2.85969714221201    7.15769068155304
C         1.69265594026489    5.48688744127952    3.53611791259583
H         1.64084476309817    5.36164175984112    2.47179154028474
C         1.49880857444496    7.37840563916521    6.54644796376377
H         1.22454570384216    8.41259168715464    6.40310535147414
C         1.74702709229937    6.85884791934645    7.79960801816091
H         1.66714614531520    7.50095708561534    8.66377583513279
C         2.09115968804363    5.51574870400023    7.97490845107547
H         2.26393261759004    5.14941543267478    8.97513050820256
C         2.20485893828853    4.64413805423476    6.91355253362182
H         2.43894257489527    3.60187464144948    7.05168434300572
C         1.96489023513771    5.14803301541813    5.63606763060947
C         1.61294760228731    6.50574979073754    5.47444645782346
C         2.39329030395544    3.09519441590383    1.09967387169508
H         1.38899018681961    3.47717667514236    1.11170279630574
C         5.29993117720434    1.77935974230713   -0.48281057154239
H         5.22905046985175    1.70253908095432   -1.55710651158251
C         6.42362891167354    1.36723084435861    0.20230129150699
H         7.25830867463869    0.96090514155385   -0.34871112642744
C         6.50010643490703    1.44768812412853    1.59573150140422
H         7.39321118605479    1.09237196591690    2.08678415303246
C         5.46658467893356    1.95155498218734    2.35472296421994
H         5.49595137936746    1.99235112512289    3.43008649783996
C         4.32822984013878    2.38383227685018    1.68221894221292
C         4.25472097037901    2.28185193751880    0.27760067501047

