31
CSD_code = BEVMOF | q = 1 | S = 0 | Stoichiometry = C13H13N2O2Zn(1+) | MND = 4
Zn        1.93768436538807    3.12335658803082    6.58222071023974
O         1.23033340566652    3.67066283128934    5.02460472937010
O         2.00122025029823    5.10112502816801    7.29745611424172
N         2.89138677358802    1.59170242391368    5.94095728928154
N         2.03702413879523    2.20059933615936    8.37570207835654
C         2.21041163395137    1.91568181866110    3.66084904257162
C         1.41769487730515    3.08745704672207    3.86550670567321
C         0.78558944426042    3.65810397948785    2.74240129911080
H         0.18120348240737    4.53644588634571    2.90788713559105
C         0.93489880474119    3.12975739225359    1.48589662048417
H         0.44478015104183    3.59848414131871    0.64632100434170
C         1.71583089519874    1.98657467092464    1.28161426533814
H         1.82518599859745    1.57784812850252    0.29014061112178
C         2.32955623215693    1.39449233364286    2.34927356805382
H         2.93070158081378    0.50850731917210    2.20646020965963
C         2.84275642656025    1.20323418706961    4.70529280508725
H         3.30667910873669    0.25040649904253    4.43776218416546
C         3.42913105368526    0.75797902498574    6.98139953020858
H         4.51432334421600    0.91393767738244    7.06269808500531
H         3.26344234815853   -0.30683744792730    6.77330143829103
C         2.80709932720232    1.11270458175224    8.31011250165735
C         3.04599811769766    0.32755346213654    9.43225282231099
H         3.67313856980182   -0.54628054407545    9.35049507272493
C         2.47130300043876    0.68056821192936   10.64022863599273
H         2.64168005433666    0.08365450590619   11.52250003671176
C         1.67099525307941    1.81505841485992   10.69425329930755
H         1.20361898205680    2.12489229094549   11.61431982924622
C         1.48152086908092    2.54588258217355    9.53869167783579
H         0.86951736356624    3.43564490558336    9.52766803382036
H         2.72305545310282    5.66121223577790    7.60514164606450
H         1.47243869407529    5.62699048786160    6.68259101814132

