39
CSD_code = BEVNOH | q = 0 | S = 0 | Stoichiometry = C10H24Br2NiP2 | MND = 4
Ni        6.51862524134874    3.41905891233981    2.72128185770707
Br        5.18385309212087    2.15776973268729    1.43330375327022
Br        8.50434785962853    2.65963182165917    2.00853386455982
P         4.71214425352614    4.19050114505056    3.55607923602534
P         7.61146984122889    4.72371099579365    4.02173475032870
C         4.07089486995319    2.91484822796947    4.71979445165763
H         3.43823775588785    3.39126498439086    5.47485231524017
H         3.45461381922295    2.23692323168090    4.12063617914788
C         5.21302854034519    2.12864188081608    5.35729895422573
H         5.89156228342660    1.75413667788274    4.57850980085893
H         4.83343216107819    1.26765321040451    5.90354623484035
H         5.78642499656810    2.74582116264618    6.04832254448467
C         3.18965009665889    4.68998620139662    2.65685339559098
H         2.71962288113493    3.77304135075422    2.29116381930352
H         2.51818502696517    5.17223719813893    3.37488277479113
C         3.49527383566722    5.60636609179375    1.47827851739003
H         3.93447622894290    6.54802554023084    1.80502300388340
H         2.58452476645476    5.83081611244685    0.92808534504631
H         4.18850129960567    5.11518283131273    0.79612286318760
C         5.05804187698724    5.67939421970535    4.62429056464843
H         4.96040507881059    6.55576102044450    3.97648826379624
H         4.29984399631539    5.75999621574780    5.40855447104501
C         6.46630723048476    5.60837305720367    5.20185028928108
H         6.46471151034333    5.02772551715533    6.12953830348792
H         6.85544281892387    6.60430902131862    5.42859050458741
C         8.34474717356137    6.05462446071411    2.98121692444038
H         8.52028457272848    6.94893976342379    3.58550397375169
H         9.30467763984901    5.66885414838839    2.62298395264649
C         7.44119892627394    6.36288907098606    1.79051121119234
H         7.17612786742191    5.43368738553543    1.26756177884821
H         7.94680505374296    7.00913180346663    1.07630121338734
H         6.52247853529019    6.85523401099003    2.10677701321823
C         8.99956528933260    4.19398998036315    5.10556545450501
H         8.61013942625037    3.41231261932561    5.76714348776045
H         9.74110599774870    3.72565970545550    4.45118185816320
C         9.64034087580091    5.30765771893719    5.92462188974013
H        10.06398876533864    6.07407661324892    5.28051840468618
H        10.44659102455527    4.89261819342883    6.52614371174069
H         8.92462749048268    5.77364816479925    6.59885306754868

