44
CSD_code = BEVQAX | q = 1 | S = 0 | Stoichiometry = C21H15Cl2N4ORu(1+) | MND = 9
C        10.78027447322863   11.85300340287323    2.85621440449768
H        11.17292979985696   12.76097811329201    2.41330422954760
C         9.80001987859787   11.92146074793922    3.85020147345753
H         9.43006269927174   12.88226436551585    4.19060719989834
C         9.19538554005529   10.72870899269207    4.33229484380073
H         8.37390387063015   10.79373224795726    5.03711320215471
C         9.58902659609278    9.49018162301982    3.82077001953900
H         9.06824251859991    8.58799650594932    4.11841384839584
C        10.61787553568467    9.41706551555530    2.84551758035155
H        10.87287178547724    8.45981555681583    2.40492529246040
C        11.20733903750475   10.59420452838411    2.36208296234885
H        11.92105055125755   10.55121378927959    1.54685272371366
C        13.91717225424437   12.27089491254878    4.37034832835344
C        13.08885450735021   13.39425607861365    4.52188286450423
H        12.07983104643818   13.25582967741979    4.88674134990397
C        13.59573748150357   14.64949245455556    4.29596645281099
H        12.96555329994105   15.51347682735033    4.43877064963441
C        14.92900749226794   14.82993027658557    3.89792996716354
H        15.29565018966660   15.82750884595989    3.71387668638039
C        15.77121111377326   13.75558904655913    3.77590846348239
H        16.80981137335701   13.86646856729887    3.51096863455594
C        15.29221557286752   12.46030786430769    4.03394028914114
C        15.70009163723472   10.23196473753320    4.30405767277238
C        14.33469795230561   10.00193184904734    4.65007180328319
C        14.26537689093331    7.59391498901933    5.40933986729994
H        15.29124068415860    7.33212896809290    5.25738771224273
C        13.24095763303900    6.87261931587216    5.94711225825843
H        13.26943143389057    5.87309935881316    6.32802905527357
C        12.10401828087448    7.72189298368349    5.92856511120053
C        10.80941596111126    7.43593834252411    6.46768683004635
C         9.79441540194584    8.27047247492413    6.88591473213675
H         9.81333447660466    9.34323257325838    6.88054338721460
C         8.78811441838816    7.43034729352151    7.39771924399521
H         7.85216952130373    7.72860638407872    7.82194299591153
C         9.25562092535548    6.15344499617627    7.25695780717848
H         8.82370625956543    5.20498451672658    7.50917760415792
O        10.47065198536940    6.14705133450563    6.70470796386343
Cl       11.54020375830980   11.33774448345365    6.82926880338350
Cl       16.85194184024111    8.96739146303909    4.25300746813859
N        13.45757951482644   11.00912651396475    4.58042392106022
N        16.12759099670791   11.40932015646424    3.97405053050884
N        13.76759268688467    8.81438548642483    5.06641501857940
N        12.44572242210189    8.87968302764030    5.37323488223895
Ru       11.52929870118193   10.51203881076301    4.64905386515759

