39
CSD_code = BEVZAD | q = 0 | S = 0 | Stoichiometry = C21H14FeO3 | MND = 7
Fe       -0.20949468910662   13.65101304504536    6.83871266688107
O         0.05676729220502   12.56479253387050    4.10326053540377
O         2.48517652689575   12.91533894890171    7.65544308264113
O        -1.03396373487593   11.15338106619249    8.08006056540030
C        -0.18375716722929   15.95741070842591    6.34674321410266
C        -0.29043428637806   15.71119056187407    7.73137085425928
C        -1.52441569495075   15.05340868287162    7.96048423570617
C        -2.16325234906080   14.87959504794858    6.70976105796212
C        -1.48591079478067   15.72208894745703    5.72396950955177
C        -1.93028840137174   16.14830735077524    4.50773863389077
C        -1.16797736734433   17.12584508756464    3.72382911529609
C        -0.62773574766424   18.26772501866533    4.31587630801017
C         0.07837604679207   19.18510537283213    3.56087780685023
C         0.25703969255467   18.98114992729208    2.20257862950117
C        -0.28507958579723   17.85671898743671    1.60112140328101
C        -0.99575755488539   16.94033854863525    2.35145356224819
C        -3.16296004090703   15.63976869592825    3.90196310747303
C        -4.01341889166798   16.50900710977542    3.21540271554841
C        -5.17148229073303   16.04258663507551    2.62537060995675
C        -5.49743667909330   14.69751227035759    2.69578984282941
C        -4.65171622177351   13.82159850606347    3.35633237384491
C        -3.49676926219533   14.28576230168824    3.95665696012634
C        -0.11713746836512   13.08497673478667    5.10744921522002
C         1.42537262235529   13.24070263442335    7.36023961160376
C        -0.72628154947549   12.15768806309653    7.61835252282593
H         0.60191555272665   16.53837254234979    5.88921161388379
H         0.39736417063024   16.05150527040264    8.49081368441113
H        -1.95292593104665   14.82596109556524    8.92474372953291
H        -3.19152434718659   14.56689485353617    6.60867444350801
H        -0.79350124862282   18.44751374738487    5.36871955965508
H         0.48524067358573   20.06809717896961    4.03264784046478
H         0.80937865773439   19.69881958402411    1.61426012438280
H        -0.15292130393979   17.69471916240985    0.54122750534538
H        -1.41384725070491   16.06174908296195    1.88143664186155
H        -3.76142534381852   17.55849364507246    3.15963568917338
H        -5.82358025964403   16.72981278373194    2.10597259224805
H        -6.40211968002988   14.33289592559420    2.23226313199862
H        -4.89126602527415   12.76885167464080    3.39992885599794
H        -2.82745006755708   13.59020066637374    4.44302644712102

