70
CSD_code = BEWDIS | q = 0 | S = 0 | Stoichiometry = C31H27AuF3N2O4PS | MND = 2
C        -3.54192177036908    3.23087469643732   10.05411009946100
C        -3.98529062677146    3.73342681008896    8.83247146670826
H        -3.38442159895612    4.45649806625115    8.29708667075385
C        -5.19473186257052    3.30812955851422    8.31642331734890
H        -5.54084132985956    3.69459205037949    7.36889408214874
C        -5.96384421644401    2.38937242790309    9.01498678288926
H        -6.90814077132736    2.06075004718116    8.60657629728214
C        -5.52954763669919    1.90245313678250   10.23651710649231
H        -6.13336791672054    1.19511876298809   10.78403675061932
C        -4.31988960161839    2.32189417102262   10.76170045928143
H        -3.97706978107620    1.96307190123515   11.72107489015683
C        -0.70823289165958    3.00786196685958    9.64470449578885
C         0.62261864791915    3.22093637735004   10.00259944493545
H         0.83956304831465    3.82016706013218   10.87788849793863
C         1.64029566009052    2.66809878737120    9.24932187814051
H         2.67052826524868    2.83937658372573    9.52330781867573
C         1.33555337545979    1.88695440296410    8.14308045978007
H         2.12973599882089    1.45011793309174    7.55624878064109
C         0.01394366562589    1.66507189934597    7.79212612425236
H        -0.22051690286373    1.05524326654888    6.93183663742233
C        -1.01128180938971    2.22231001507842    8.53952300744604
H        -2.04237826290089    2.04636975832957    8.26858455570576
C        -1.86267249961869    5.50206891100778   10.39628096530487
C        -1.26508611494130    6.02527445602963    9.25455414702117
H        -0.79805088558807    5.36659658270772    8.53459168449194
C        -1.26071002990955    7.39409186010897    9.05208983884901
H        -0.79418618359398    7.80302874246445    8.16776335805444
C        -1.84835688541228    8.23825909298216    9.98009260099660
H        -1.83853967663106    9.30563484404937    9.81713118939676
C        -2.44050497877301    7.71712977805685   11.12015457982100
H        -2.89016357852264    8.37617728175520   11.84713345447280
C        -2.44594801902376    6.35155043931102   11.33267103324152
H        -2.88889454689150    5.92985678176304   12.22500658994131
C        -1.81443627213088    1.47043616266805   15.41414594450886
H        -1.74452539285874    1.51803231111173   16.50724343790059
C        -1.17040859875790    0.14406843387772   14.93531427134543
H        -0.14822719269922    0.12881226003526   15.31414048359475
H        -1.72952072711090   -0.68351613421112   15.37601901733450
C        -1.14986232346739    0.03773347151171   13.44868489477262
C        -2.21185755213653   -0.39659945279966   12.59603274084732
C        -1.75082037382854   -0.25793999093501   11.26301668741293
C        -0.12190101632520    0.40244704784302   12.62448580078527
H         0.84994177278991    0.77185890288531   12.88775742328111
C        -3.49007728135453   -0.90672274537157   12.82283636160392
H        -3.84604979670002   -1.06221680199245   13.83031905325886
C        -4.27736112163181   -1.22539751169969   11.73948659347337
H        -5.27098665092460   -1.62040629447482   11.89648943336731
C        -3.81543786935777   -1.06268231419733   10.43031171750406
H        -4.46336939505982   -1.32466861178088    9.60690012302040
C        -2.54720559599350   -0.58903101937411   10.17444058364624
H        -2.17874648391551   -0.48278865762447    9.16476317558465
C        -2.64980790430018    4.73152875816245   15.88636824260673
C        -3.28065223582691    1.50198343682935   15.02585626628628
C        -5.44553051921029    0.83345396227675   15.58733730707203
H        -5.89703933945911    0.12512954938920   16.27705099968394
H        -5.64928533425749    0.55537028219422   14.55123323884238
H        -5.82693629737653    1.83986021644843   15.76676428340843
Au       -1.60934077947021    3.16425647125171   12.89279724933958
F        -3.59043996488912    3.92546444860840   16.40359437228280
F        -2.57669297339028    5.80728967644588   16.66680062884223
F        -3.10038905470264    5.13930100043432   14.68923152930405
N        -1.15150206044404    2.60160881234612   14.83501573911344
N        -0.47137349356821    0.21234471312207   11.31469630210609
H         0.11222748539774    0.41100145832944   10.52028716611499
O        -0.67988448690588    3.52204287540137   17.12557974993765
O        -0.14988997638177    4.83270380666065   15.09282439769257
O        -4.04355421555997    0.79803059280493   15.84298475691403
O        -3.71578318999621    2.11106455251899   14.07227745277966
P        -1.94700628030193    3.72612736903674   10.75924434739261
S        -0.95481579124981    3.85716051244903   15.76129916157911

