87
CSD_code = BEWNIB | q = 0 | S = 0 | Stoichiometry = C35H48N2OZr | MND = 9
Zr        5.25064116299512    2.29111995179240    0.60458195717360
O         4.33624618454894    1.17909471591988   -0.62532206291718
N         5.08848227959728    4.28108306681193    1.56244041959268
N         5.26866827084434    4.17325574417085   -0.63925263165482
C         7.77218484144656    2.41353561960211    0.17419988343312
C         7.64132202303217    2.43188341600556    1.58517740977514
C         7.08054325565144    1.19842554794072    2.00097544293244
C         6.85307276816262    0.41250167262408    0.83667881641245
C         7.28130608722383    1.16496069456140   -0.29222938388127
C         8.54208611783367    3.44185401794294   -0.60763013288887
H         8.52813240336452    3.21734568916807   -1.67218303135310
H         9.58683694873438    3.45043643059170   -0.28527593729356
H         8.13890586897802    4.44403173315158   -0.45582789367101
C         8.22502031205084    3.46822982246407    2.50316388817363
H         7.62536246562280    3.58207802753440    3.40517009578795
H         8.29438294177808    4.43421452473709    2.00597969690714
H         9.23517580932519    3.17994262862354    2.80939422586840
C         7.00539938312383    0.75594745734380    3.43933194128007
H         8.01156066385547    0.70280439237186    3.86273877233138
H         6.55861030717718   -0.23223943229017    3.53026259710593
H         6.42750269475445    1.45385852701060    4.04879862387100
C         6.36661240926652   -1.00997516363435    0.75731999413120
H         5.57657772576799   -1.10307984097460    0.00801142884603
H         5.98304627546126   -1.35660318685938    1.71622198258221
H         7.18215303945998   -1.67689398208400    0.46506777421160
C         7.31707445771723    0.61809685218490   -1.69444340232945
H         8.02295834809203   -0.21441294074900   -1.75830366951244
H         7.63266846518050    1.37583209263675   -2.41065432588896
H         6.33335826553358    0.24295503137284   -1.98711790916967
C         5.01316041551909    4.93872095541092    0.41266176215033
C         4.62716072975605    6.39662111704861    0.25876515345764
H         3.60014957629959    6.45534021599148   -0.10429519677767
H         5.26771538990453    6.88835027573014   -0.46896333681188
H         4.69681741696825    6.93532506454120    1.19367318761189
C         4.82780921327843    4.86932348539948    2.87140060218190
H         5.04243243986814    4.04869240684109    3.57289973529657
C         5.75343173128071    6.04271110614309    3.26110215091068
H         6.64816015201364    6.03887387096427    2.64407128656079
H         6.05748004778709    5.94689566459703    4.30076981243640
H         5.26009128028491    7.00667009917975    3.15686468360092
C         3.34850919967694    5.24026702765949    3.05978781243400
H         3.07624382066400    6.12029640896964    2.48339527270135
H         3.14892820199395    5.44286435527546    4.11004999834292
H         2.72467991175148    4.41001972446485    2.73260431027428
C         5.09152549444079    4.66252768057657   -1.99567246310772
H         4.23887197390034    5.36131293923326   -2.04993147671497
C         6.33795499408342    5.37960137223809   -2.54380804440797
H         6.71988056415940    6.11716952106311   -1.84182487968305
H         6.09149173868638    5.88655294591703   -3.47445200681312
H         7.12451333487218    4.65732207694993   -2.74051651777650
C         4.78314760754171    3.45560400144891   -2.88396481798074
H         4.83943428150058    3.72910114885114   -3.93636286051061
H         3.78333443884482    3.08126702666986   -2.67109874951424
H         5.51080307793080    2.67095858684397   -2.66706127929081
C         3.04684948579742    0.66863528288590   -0.70422872920214
C         2.04560523282367    1.75362025836696   -1.10343540576593
C         2.20616805829356    3.03553044015892   -0.58261309152413
H         3.06845991507143    3.23725996417951    0.05774819877361
C         1.29154405719441    4.03113521610567   -0.88124916617810
H         1.41906281609198    5.02057816461378   -0.46499294685287
C         0.20571394306987    3.76029356448484   -1.69737376096521
H        -0.50766754367780    4.53746393807082   -1.92926306602783
C         0.03668596502736    2.48569107283002   -2.20946253736701
H        -0.81068359462389    2.26574948822643   -2.84237331120316
C         0.94729839393629    1.48615587371908   -1.91040729457691
H         0.80196491092581    0.49272295104513   -2.30930820102347
C         3.05348428378455   -0.44881406655778   -1.75242192700899
C         3.64021929651027   -0.16501839727815   -2.98245477249385
H         4.03586353888012    0.82424066375861   -3.15110797660772
C         3.72327287053915   -1.12355262192956   -3.97434948933886
H         4.18369086181358   -0.87874630487479   -4.92075345948817
C         3.21553696799284   -2.39315852765714   -3.75647595228169
H         3.27704298559713   -3.14624776251392   -4.52838344710321
C         2.62790463074010   -2.68710221163079   -2.53979430957987
H         2.22732206718993   -3.67422029152347   -2.35824130069295
C         2.54778012171560   -1.72572943255084   -1.54478941340668
H         2.08094460152206   -1.99114422309800   -0.60967197159697
C         2.57349103603580    0.13632164033743    0.68679067429235
H         1.54749493096570   -0.22348827679067    0.58899770798439
H         3.23098926996554   -0.69350023495722    0.96468980724929
C         2.63997244134730    1.21557002561558    1.73861438827044
C         1.52106180172175    1.87377460575202    2.07720192131779
H         1.51571847303009    2.62715775357815    2.84833108611988
H         0.57385935851499    1.68162493162480    1.60138267293582
C         3.96974749840044    1.46588639028795    2.29528890085496
H         3.90237899910501    2.09105308135417    3.19664854923013
H         4.44040351529329    0.50808485651986    2.55168891475427

