59
CSD_code = BEWNOI | q = 0 | S = 0 | Stoichiometry = C23H28F5IrN2 | MND = 6
Ir        0.94144404759024    2.91195378510780    5.20145299372222
F         1.92182183626665    5.98089719651538    5.03826165822166
F         0.62667048658054    8.31876218635863    4.73445974273633
F        -2.10615948018164    8.36654082252767    4.48751130330968
F        -3.49723096954455    6.00182422370082    4.56847685884692
F        -2.18931568798191    3.66813812749758    4.87434256840239
N         0.14183323828999    2.07679029284799    2.35659811732197
N         1.96127499507477    3.22167100027287    2.31896873270424
C         1.01697705749443    2.73061963845414    3.15388250888289
C         0.53478973728684    2.15936553713379    1.04803413213841
C         1.67816708991238    2.87979570368362    1.02421403343998
C        -1.06411297321039    1.41257838751725    2.81079655473707
C        -2.29266665822527    2.04967685185147    2.16722421551712
C        -0.99395813885080   -0.08336772012209    2.51247959947603
C         3.08498184655105    4.04239283453154    2.72573521773097
C         2.97586819421363    5.42883399362637    2.09612540687407
C         4.40490340730736    3.36625512565914    2.36313356381800
C        -0.06960988571825    4.71035891290615    4.93325155230941
C         0.57139242611520    5.95019399952748    4.90783329622898
C        -0.07381183471350    7.17002611636601    4.76241011786433
C        -1.45701568110691    7.20022379730071    4.63936129518703
C        -2.15595875562689    6.00035698593369    4.67880561299519
C        -1.45782539684246    4.81079279943559    4.82630643879769
C         1.41289768247331    0.83674861990276    5.58720544424742
C         2.59053479225615    1.57223783489292    5.46442297858775
C         3.45473499463737    2.02169176813303    6.61802615918004
C         2.65537700342043    2.66553382864950    7.76459460466713
C         1.41216526071082    3.37034900931642    7.27196618281784
C         0.16526401083678    2.77017244732634    7.20395412003719
C        -0.12372337020274    1.32832089210425    7.54305868171470
C         0.86942524865744    0.33818562554186    6.90807015747343
H        -1.10164116481234    1.57231837750764    3.89396816641995
H        -2.32813519286282    1.84681210003864    1.09917709379635
H        -2.28156298039018    3.12504163598213    2.31850448377545
H        -3.19255158404417    1.65200286003311    2.62584809228398
H        -0.09722191719334   -0.51986090724850    2.94558861023940
H        -0.98255460224577   -0.26682304438559    1.44031499484414
H        -1.86057779360585   -0.58182244972573    2.93651289640920
H         3.00787306416307    4.13515492866197    3.81434592574002
H         1.99672060591056    5.85533501604372    2.29712901395909
H         3.12291152290061    5.38498111045200    1.01923675193016
H         3.72760704263517    6.08501860141818    2.52358620380183
H         4.51906703061875    3.28360751173522    1.28458925103852
H         4.45580741017308    2.36893015466087    2.79343997918981
H         5.23283943837925    3.95208230450934    2.75120915512267
H         4.03331803686864    1.17121087095949    6.99597964890495
H         4.17029086082090    2.75185564686117    6.23381903283245
H         3.29587096411669    3.38904277398851    8.27216927113955
H         2.37364980699723    1.91311381147481    8.50246266655663
H        -0.13267040397546    1.20408213558459    8.63132722549759
H        -1.12954948196330    1.09967544439889    7.18509875740242
H         0.35801295671807   -0.61316661376033    6.74706068676350
H         1.70001810693699    0.14294296272832    7.58788466457414
H         1.13135764258186    0.22137537342384    4.73570232067293
H         3.15560338113034    1.44902513417555    4.54081856452898
H         1.44269875264299    4.45169594872583    7.37430823296156
H        -0.71011233694076    3.40970959068605    7.29555656161231
H        -0.01303330581304    1.71211563626386    0.24549229910591
H         2.29382961678228    3.16632246030616    0.19770559890803

