61
CSD_code = BEWNUO | q = 0 | S = 0 | Stoichiometry = C25H33IrN2 | MND = 6
Ir        0.18384406014991    0.85216678186953    5.81643894058337
N        -0.22968620561364    0.52791915082081    8.82430892106110
N         1.40662390951112    1.86920629935926    8.43053795408170
C         0.50205790045855    1.06689706550565    7.82107574316843
C         0.20821312603122    0.99179179728115   10.03671566120861
C         1.23590378009096    1.83395260887341    9.78945083269897
C        -1.39605519835738   -0.30428759200055    8.61426570308781
C        -1.31082368545691   -1.58606426089894    9.43782361544107
C        -2.65775069989409    0.49994947219990    8.91970442827168
C         2.31636515988177    2.74479884888634    7.72144296033036
C         3.75066108652868    2.55513023387930    8.20685962570275
C         1.84358364436175    4.19034410466116    7.85797103691026
C        -1.01838346660117    2.42526088182957    6.06754064047060
C        -1.74084852495180    3.37993494688169    6.28736775980621
C        -2.58228980901309    4.48865640043975    6.53777062029880
C        -2.07183195136701    5.78991178403245    6.52098285814048
C        -2.89585847342746    6.86729713597483    6.77708315560648
C        -4.23975431630250    6.67153125845981    7.05446461606670
C        -4.75593579123000    5.38520979059109    7.07214757379718
C        -3.93918970729066    4.30194854990820    6.81763947596863
C         1.97435293037836   -0.27823274319986    5.50069066605709
C         0.92688798452736   -1.17228272685996    5.66062599252551
C         0.30469699672726   -1.94407684761576    4.52100510638253
C        -0.90353050387705   -1.21437902855418    3.90256172300170
C        -0.81692801588749    0.29003958171313    4.00979895708380
C         0.30244821741374    1.04346950543640    3.67122123217803
C         1.56470229810993    0.44340545567176    3.09140934086415
C         2.59824087947041    0.08742218215705    4.17634610353653
H        -0.22901115455685    0.69624439732827   10.96740278537090
H         1.84460257916477    2.39345285286780   10.46856836762757
H        -1.39211068816856   -0.54923392449116    7.54396865013082
H        -1.38110408974584   -1.37446121379605   10.50231914391176
H        -0.37050148489546   -2.09893094460401    9.24738264376763
H        -2.12731079146649   -2.25022168707394    9.16863443664931
H        -2.67104081193577    1.39290536901918    8.29864881808600
H        -2.68650593810710    0.79604057247734    9.96602021508969
H        -3.54051044024166   -0.09391745185961    8.70122636618450
H         2.23958460691075    2.45468277291750    6.66533271912512
H         4.03456051353891    1.50615472821553    8.15604974184026
H         3.86586592042107    2.89620877493321    9.23313048465371
H         4.42911659225542    3.12712024848093    7.58015183934588
H         1.87062185438948    4.51268783322649    8.89651318395477
H         0.82315279090140    4.26769437873071    7.48942742794554
H         2.48018878953438    4.84724793902451    7.27238872513927
H        -1.02399021255549    5.94225827139489    6.30081111415676
H        -2.48981643835284    7.86967037787943    6.76040360338147
H        -4.88186579934236    7.51741207379419    7.25435677653360
H        -5.80453518431034    5.22867494009598    7.28598386950887
H        -4.34137095883383    3.29809213264673    6.82887472608261
H         1.06259469158391   -2.13293165394584    3.75810784421617
H        -0.02567853849448   -2.91931388218434    4.88797343423359
H        -1.81323218346199   -1.53517348436128    4.41674139044151
H        -1.01348984358056   -1.50094541268544    2.85019307225620
H         1.30717430713840   -0.44294144482573    2.50867389711401
H         2.01621720211704    1.15857888408261    2.39994031095759
H         3.23599436130128   -0.73488930048411    3.82904485293947
H         3.25176206115590    0.94918208475088    4.33826375134358
H         2.65775637833593   -0.15475052721082    6.34038580555835
H         0.83716987733414   -1.65881674853866    6.62968642881560
H        -1.78767652173577    0.78014231481117    3.94797366433023
H         0.13347292936123    2.08395609231876    3.40096866497132

