62
CSD_code = BEWPUQ | q = 0 | S = 0 | Stoichiometry = C24H33IrN2O2 | MND = 6
Ir        9.61169721790575   12.98385728866162    8.80578571474803
O         8.21436170689473   12.73054778905370   10.75738784677413
O         9.92876212827034   14.08616851959955   10.89221318967723
N        10.18000941244399   10.27760656905183   10.02773060526749
N        11.88771631707526   11.57442628338698   10.21781394699640
C        10.65560267600303   11.49020219201532    9.66905757085377
C        11.09991446887019    9.61805919481130   10.79649655992788
C        12.17252233178778   10.43241657966381   10.91586146865922
C         8.87965701372717    9.75125215586316    9.66319137254100
C         9.04130954377131    8.46178441303134    8.86119823604785
C         8.02312513631245    9.55588115512846   10.91010116639851
C        12.77654095037564   12.71346539798952   10.10056806618070
C        14.08425109119504   12.29384154668873    9.43302148756171
C        13.00245003923733   13.34697260193940   11.46982767354933
C         8.91084977817762   13.55358524024980   11.39540104455178
C         8.52295763494250   13.90174143734498   12.79834950423544
C         9.28916158017564   14.79564765173328   13.53701600167520
C         8.92381507491646   15.11659116373516   14.83106643968304
C         7.79215134649200   14.54807681092439   15.39345196102455
C         7.02353294434527   13.65902685411139   14.65938491841400
C         7.38700061227267   13.33608513653521   13.36553411146966
C         9.05224933077803   14.93676790045999    7.99159190277413
C         7.93720402025987   14.13178372815050    8.05677462284767
C         7.32015101974855   13.41797609890353    6.87580764721889
C         8.34460767834011   12.62761079632132    6.04061291932118
C         9.51985121347388   12.15033427451789    6.87907271679768
C        10.71380295098081   12.93105598874207    7.02802778107169
C        10.91006817951031   14.29209144115299    6.39130378820303
C         9.76044152498028   15.26884496494226    6.69672734320469
H        10.93257558729359    8.63964622757525   11.19604400893943
H        13.09490297712487   10.28180210714054   11.43689345506554
H         8.41299492600895   10.52057184586735    9.04045472370494
H         9.45280128504710    7.66561500007792    9.47761955255621
H         9.70436629067556    8.62353135059872    8.01429695840901
H         8.07429425864992    8.13886482453816    8.48660815267923
H         7.90176952155311   10.51671498477354   11.40279783222771
H         8.48124642323606    8.85081139844309   11.60046087385330
H         7.04272287365337    9.18198200340426   10.62912094397858
H        12.25094677924249   13.43568296232372    9.46800284972780
H        13.88465793693064   11.81240289667151    8.47849286427544
H        14.64082526796474   11.60223701549829   10.06154587304358
H        14.70346605019052   13.16847410689348    9.25616828456686
H        13.45832558310398   12.64320601652194   12.16298504232102
H        12.04489939249688   13.67394457914047   11.86574551432082
H        13.65254212199372   14.21185421973940   11.37319708008742
H        10.16445079196514   15.23331467402494   13.07964124933210
H         9.52011418585997   15.81237433212375   15.40433850645584
H         7.50676465090731   14.80095039593608   16.40489305115068
H         6.13831034513180   13.22037254285881   15.09777232956334
H         6.79792488567271   12.65008251958472   12.77456615477808
H         6.79550186542570   14.14358575718454    6.24397525552549
H         6.57056422855604   12.72504522513684    7.26228014777794
H         7.84320925232187   11.76394017490146    5.59899343668693
H         8.71585508308597   13.23697751898816    5.21475952314406
H        11.03512289999955   14.18088465533495    5.30805335628687
H        11.84204955967486   14.70750042566447    6.78030897116423
H         9.03225246796011   15.26164967438119    5.88387980112354
H        10.16188236436104   16.28211727407779    6.76066335284015
H         9.22140134428107   15.64097292053525    8.80150894879560
H         7.25749869970450   14.26031678569626    8.89570574913129
H         9.66883535053659   11.07214960735891    6.82620770650246
H        11.64695982612094   12.36522280230025    7.05674084230874

