50
CSD_code = BEWQAX | q = 0 | S = 0 | Stoichiometry = C18H28IrN3 | MND = 6
Ir        2.16274021886047    0.89039310723496    3.89670701428264
N         2.08027047806742   -0.54099004732507    6.60304601348008
N         3.46465019072228    1.10534166423858    6.67061702308579
N         4.59706117187861   -1.01457816358691    3.43162828377127
C         2.56800842062802    0.48553761263197    5.86767652110803
C         2.66740675271717   -0.56237478979130    7.84075291122383
C         3.53674310277623    0.47148911378542    7.88314036136101
C         1.17298308169725   -1.54498329052023    6.08647323166265
C         1.92702135709561   -2.85572062907948    5.87359110793133
C        -0.03525805041429   -1.71384081343856    7.00332284109655
C         4.32231041645834    2.19001227491203    6.23861930753003
C         5.74924399891173    1.67541631449429    6.06238220518506
C         4.24646897724279    3.36667989591934    7.20762668061713
C         0.14907489510112    1.68032383666314    4.19966131120341
C         1.06892075318966    2.70160543256052    4.31884001163218
C         1.36768216721090    3.72567519981380    3.25303422335977
C         1.57585039163550    3.11625962578484    1.85348515479579
C         2.16798089433061    1.72495035703168    1.90926891982355
C         1.39925199087345    0.56439338134500    1.92558976602667
C        -0.11089156240322    0.53204930616321    1.94904263969379
C        -0.73456500920122    1.47915481086499    2.99328704621727
C         3.68970132426598   -0.31015211528116    3.56593799535193
H         2.42978947864676   -1.29252125628904    8.58570365626387
H         4.18409408367729    0.79390670964246    8.67150491217528
H         0.84570583482052   -1.16983834248945    5.10732200608143
H         2.29961445729507   -3.24678799479633    6.81772779456659
H         2.76827800297735   -2.68507922521368    5.20559549024167
H         1.26968154696552   -3.59508925829626    5.42544287532692
H        -0.76127805873516   -2.37291892369822    6.53561846544670
H        -0.50987543879595   -0.75277216057836    7.18996187928970
H         0.25417603980046   -2.14850680538404    7.95727038077267
H         3.94020256292235    2.49451790611412    5.25488940616791
H         5.75096318621967    0.84865153485717    5.35557499777478
H         6.15791003690198    1.33170977859854    7.00999203977662
H         6.38477928746912    2.46636576732144    5.67503089321174
H         4.67526774040012    3.10745578264352    8.17276591400909
H         3.21315426992329    3.67223570771808    7.35804991186622
H         4.80081237969319    4.20957717912449    6.80471680609064
H         2.27669244536997    4.25954287979174    3.54397317394610
H         0.55991352652305    4.46701970691578    3.21930993948907
H         2.24593796136276    3.76744725717664    1.28760653628375
H         0.63011009365012    3.08407800789623    1.30956019405413
H        -0.42025967425958   -0.49295085419514    2.17016146203301
H        -0.49711487654512    0.77367855539601    0.95212408772846
H        -1.69037180773194    1.05951877528116    3.31769899280222
H        -0.95109751646486    2.44886057546449    2.54104353188934
H        -0.24163296356547    1.25236219176623    5.11997559804843
H         1.31403684786549    3.04343257244643    5.32358312100893
H         3.16998136469585    1.64688980901512    1.49119120117824
H         1.83727322727522   -0.33282796065437    1.48897416203959

