82
CSD_code = BEWQEC | q = 1 | S = 0 | Stoichiometry = C34H39N6NiO2(1+) | MND = 6
Ni        6.85026314400099   10.00146431854516   14.41415841256002
O         7.99318487416401    8.90257847140587   13.34617838320176
O         6.10218232479387   10.71632807951338   12.94723870400549
N         7.57245179652429    9.23322031475359   15.87935269350919
N         8.02385780464181   11.85293351595932   14.87912104628811
N         7.85819220476497   13.99422595438819   15.49694989937319
N         5.55343979457107   11.20491649278673   15.51680160178497
N         4.99975369079160    8.75851760956474   14.64270198851941
N         2.78679893954093    9.01429114105327   14.83306561663874
C         9.14226753131422   12.50311334032211   14.45378525054822
C        10.25246939359142   12.02715445467885   13.75899051788784
H        10.30381019685173   10.98934410191169   13.47364202273089
C        11.24760234575643   12.92882541309569   13.46174458163813
H        12.12406025553866   12.60122734320981   12.92408837142686
C        11.15626208947448   14.27347733905501   13.84281841449929
H        11.96409232557946   14.94274079247282   13.59034357159132
C        10.06773415769511   14.76424601712610   14.53182089565878
H        10.01701448849467   15.80206470209154   14.82247348427309
C         9.05560122677883   13.86231802122897   14.83573356131401
C         7.31953551570042   15.23825437666875   15.97477187195005
H         6.24785454203297   15.28626721516193   15.78261148614665
H         7.80297520229998   16.05624568728925   15.44261925775236
H         7.50638238012759   15.36513886711354   17.04424264331360
C         7.28304127549976   12.75585068852849   15.49892992036673
C         6.00386890577015   12.34240563034954   16.05489629608764
C         5.28737238110758   12.99951615628951   17.05625755558988
H         5.66913474265854   13.88874631757228   17.52699591124511
C         4.08015660018618   12.46012123783382   17.46931310721644
H         3.51628572369917   12.93794552212318   18.25582556014384
C         3.59689882394736   11.30891113659306   16.87019623339855
H         2.66516500209193   10.87667289118163   17.19326701961113
C         4.36853817342811   10.70510143093399   15.87713516069724
C         4.02478606364797    9.49488858680261   15.14629842618468
C         1.50339695295850    9.59524459899975   15.11673452825639
H         1.12434605525100    9.26044205807079   16.08574468069211
H         0.79890591319875    9.28593939203884   14.34574789323655
H         1.57154325223086   10.68272777753084   15.10961431676952
C         2.99229343056489    7.88740730933109   14.07394742349595
C         2.12245076660148    6.99146973298327   13.46572943190281
H         1.05109599765381    7.09131032256380   13.54423623628044
C         2.68927499968974    5.95562844833810   12.75385376985533
H         2.04682212849252    5.23851866496041   12.26678239798588
C         4.07704648444354    5.80426303827601   12.64471677963225
H         4.46402194932107    4.97365593813722   12.07459111941025
C         4.94725524698460    6.68360952447774   13.24646295540125
H         6.01765927574733    6.58436625357121   13.17230213243891
C         4.39496082293067    7.74025490464332   13.96694361133461
C         8.20976552153923    8.55495937396653   16.54983034193689
C         8.99072947984093    7.72044439212929   17.40365264965514
H         9.99162338866336    7.61069032061954   16.98641035983134
H         8.52486057968397    6.73824176388718   17.48162398954015
H         9.06270066287869    8.16517341891743   18.39581727193847
C         5.24968707530973   10.62227106362498    9.36295559054904
H         6.21752003752743   10.88822252789798    8.94578049603377
H         4.48547139616468   11.15083440030489    8.79696431497881
H         5.08354026329814    9.55560293006761    9.23508844341484
C         5.14814368294961   11.02728607007973   10.82997955894660
C         3.76914926710257   10.63064683269562   11.37601191673769
H         3.63509011584930    9.55126856240117   11.32244295300379
H         2.98503781617078   11.10800304458986   10.79318255893062
H         3.67446771600544   10.94180528828197   12.41417491170421
C         5.34537406349542   12.54200812059561   10.96062959085388
H         5.28832482422325   12.84100344301513   12.00473695838844
H         4.57743750776281   13.06997334382647   10.40047603982603
H         6.31903362818277   12.83173126496616   10.57118877816015
C         6.18316447199528   10.34566071819065   11.74405764567952
C         7.09236592937309    9.42146541278712   11.23928429266326
H         7.11139996313415    9.21361059770564   10.18962086347847
C         7.99404293764620    8.78083619842797   12.09340848715811
C         9.08031528160229    7.84248732200055   11.53997146068281
C        10.43081177949993    8.37625394820461   12.03434822763070
H        10.63456474527855    9.35176714795742   11.59687793343103
H        11.22947267431912    7.69719799627399   11.74578090194354
H        10.42427450267099    8.46840837564826   13.11800647114887
C         9.10344473977971    7.74399089260650   10.01727699839655
H         8.17653728487045    7.32675739356281    9.63172032500405
H         9.91526819503782    7.08412653131803    9.71855941843308
H         9.27603952654739    8.71561074226245    9.56116575599669
C         8.82690908726453    6.45260658115923   12.13798259236156
H         8.76453845143338    6.51408681063534   13.22214960349541
H         9.63776955697034    5.77895004558362   11.87134740935806
H         7.89751665277810    6.03742599227117   11.75311814485491

