53
CSD_code = BEWROL | q = 0 | S = 0 | Stoichiometry = C17H24F9IIrP | MND = 8
Ir        4.60908093472071    2.49797653864375   11.01152843865348
I         3.42815335834750    0.37793356790427    9.86424541804439
P         4.16418456407070    1.44452388593228   13.06333930602291
C         4.90830858237271    4.70516029509043   11.31905648696434
C         5.18635438044223    4.44794714530526    9.93176882640415
C         4.01642711136526    3.91220415827466    9.34233183956957
C         2.97731042317007    3.89129975489770   10.35004695594994
C         3.51665553255722    4.43204583253049   11.54428528097181
C         5.76650581157225    5.49896803490685   12.24909235706841
H         6.79574092802287    5.52782080817872   11.90640647908198
H         5.75284851155528    5.08469820907428   13.25611472444691
H         5.39360891698638    6.52409883663730   12.29954353483592
C         6.40248420110545    4.90485740168279    9.19817588156582
H         6.53054438701526    4.36272535756494    8.26530438410954
H         7.30552486398624    4.79240347005452    9.79223993833404
H         6.28633717385457    5.96422393555124    8.95908007680186
C         3.77925996355693    3.66647424288390    7.89102411398543
H         4.69669355606947    3.38714947817774    7.38071789257270
H         3.39015664656624    4.57716927085916    7.43075973020449
H         3.05186903084164    2.87172036173419    7.74235163833114
C         1.52919258493678    3.65847841543128   10.06735631842609
H         0.96269200091435    3.51862858281249   10.98509470738476
H         1.38244645515559    2.78529574385430    9.43526496635107
H         1.12266681205212    4.52520963639891    9.54278725870574
C         2.72173785155931    4.92120695948876   12.71192040090786
H         2.16165650860685    5.80593141432327   12.40222119772514
H         3.36902845401111    5.20776575288233   13.53639750100896
H         2.00073361817780    4.18674185718056   13.06579368675734
C         6.57185654459858    1.50628638073642   10.89596161664017
C         7.20658337805690    1.46395247381735    9.48342411697967
C         7.73187164547294    0.07080948767586    9.02846714312409
C         7.62009347625646    2.06567316319351   11.86460894659874
C         4.79650232376875   -0.20718357909551   13.51440597670227
H         5.85987019277487   -0.16391735688565   13.73124160891890
H         4.63349180928341   -0.89877023647516   12.69040570900614
H         4.25368393818287   -0.55021658519017   14.39493190068563
C         4.50241208006936    2.39288497107785   14.59667629457954
H         3.91157381711331    3.30381406896120   14.60836992892028
H         5.55551240887365    2.64463782511700   14.66414659102289
H         4.22901050661534    1.78023043399611   15.45451384636383
C         2.36571367047496    1.13474857421280   13.25332094890201
H         2.14056058464076    0.93032859279932   14.29892086722701
H         2.08904712558078    0.27681307846932   12.64525538935439
H         1.78342622782243    1.98947955910035   12.92088511099813
F         6.48683696309234    0.16327942434541   11.30001716045126
F         6.32900208741033    1.86217650676951    8.52828117170938
F         8.24361803106018    2.33108910865445    9.37093248546824
F         6.75714794263502   -0.81302491059495    8.87793807160442
F         8.33604049802491    0.20346790106217    7.84320930616864
F         8.62907693396347   -0.43479632020353    9.86983472552410
F         8.80500073124913    1.44878495939652   11.81936436130829
F         7.19192584073423    1.94119026796805   13.13517433618540
F         7.86243807867454    3.36970326283730   11.69096304436464

