42
CSD_code = BEWRIF | q = 0 | S = 0 | Stoichiometry = C15H15F9IIrO | MND = 8
Ir        6.88303240642052    3.00801005415209    8.73708776397413
I         5.01651466656759    1.41129349749512    7.65287054309848
C         8.65655825276060    2.30887128300940    9.98308422144990
C         8.26194281290817    3.62969357895800   10.38151901516900
C         6.95191663697272    3.53764672233459   10.99545576830063
C         6.49565332704941    2.21956212624119   10.85299233212237
C         7.54648122259982    1.44603762164051   10.19924381583269
C        10.02636585488910    1.89739733044325    9.55210639015428
H        10.61832117631950    1.65081587268545   10.43536522934036
H        10.53358420338095    2.69815001359889    9.01902453348873
H         9.99556414665883    1.01965414526797    8.91075804624820
C         9.16028245223054    4.81300696703418   10.48326429229617
H         8.60695520161063    5.73804963306306   10.34118219893491
H         9.95678084092897    4.77040069483801    9.74439408729851
H         9.61279673328013    4.83953465442129   11.47641870778597
C         6.32466683686756    4.61377587622066   11.81486141693255
H         6.78128919274938    4.60919120149850   12.80665764190826
H         5.25627158051720    4.45198171102861   11.93065375593120
H         6.48516894737882    5.59713095607676   11.37962265146457
C         5.26637784369316    1.63520225055349   11.46295850131844
H         5.48462692175934    1.31646627926221   12.48376807207802
H         4.91906985588081    0.77106384694155   10.90189764130354
H         4.46119733186693    2.36535802781788   11.49536897619310
C         7.55701603151080   -0.04127150792952   10.09366793662114
H         8.26216648798576   -0.38064697110030    9.33869061745827
H         6.57243570188892   -0.42789246275924    9.84064782006485
H         7.85164259937807   -0.46636717188362   11.05486359431467
C         7.76863425230650    2.92104625764125    7.09212430416796
C         5.94551253546779    4.92016839584249    8.16517000623864
C         4.44849684197660    5.00224533292952    8.51579936690489
C         6.19247404716330    5.43878080245833    6.73335425296617
C         5.59069781997015    6.81984283321759    6.33405440333978
F         6.54393466738139    5.88551012903450    8.98163152337037
F         4.17249923128001    4.28320668793556    9.61806351544729
F         4.06202826885501    6.25321610544602    8.79711475963485
F         3.65908006262277    4.54957656782214    7.54883451682567
F         7.53669901078175    5.56634671547856    6.55925514806155
F         5.78639462589804    4.53331125027386    5.81862541709412
F         6.10201817206223    7.20521136603069    5.16548256364347
F         4.27093053287214    6.77546866398785    6.19542959043540
F         5.88313982241285    7.76323260242817    7.22534095715322
O         8.34698084289550    2.75162005856408    6.12699410363346

