45
CSD_code = BEWRIH | q = 1 | S = 0 | Stoichiometry = C21H18ClN4Pd(1+) | MND = 4
Pd       -1.19422996573744    0.87887119395186    8.46202596934911
Cl       -1.67544624138990    0.00509433718845   10.45846727464108
N        -0.36417487438715    1.37806105378662    6.62728127112570
N         0.34026637015414    2.98261017397266   10.08781252133042
N         0.95145942515996    2.62986701446530    8.01690017479452
C         0.12617194437295    2.20705064676627    9.03035439987996
C         0.78829433195520    2.06156925819653    6.75851554154123
N        -2.58711045196417   -0.40189244985705    7.76873552276346
C         1.30715536323971    3.92757160051362    9.79003790482953
C        -0.46485955884094    2.98883406945117   11.29107654065752
H         0.14878052249640    3.32504360154266   12.12715763569687
H        -0.80907588962644    1.96559088055541   11.47704925201125
C        -3.40047149524310   -1.20765488099841    7.87025491547555
C         2.79409377616588    5.75672524214688    9.95656577837135
H         3.23692781095891    6.56276838658981   10.51911008174434
C         1.70974469141111    3.70993191867662    8.45971992646172
C         1.84431910163063    4.95174512132385   10.55450293543207
H         1.53205637415548    5.12066708308900   11.57135349559430
C        -0.64903388018828    0.80382607792995    5.45945741999964
H        -1.59241394672446    0.27438520322460    5.39758413635163
C        -1.65910070432635    3.89791113168826   11.09646902924218
C        -2.58528418639736    3.62423402302922   10.09523616457650
H        -2.47087326222567    2.73246560269551    9.45369082815369
C        -1.84101019581150    5.01092095788815   11.90433738810854
H        -1.13356816653698    5.22703976319874   12.69124763425645
C         1.70843885804920    2.15394985257642    5.72064768161523
H         2.65142202416892    2.65055700507165    5.86587327636993
C         3.18262659972353    5.55525742206279    8.63479271539953
H         3.91626732980740    6.21255061888443    8.19611153184871
C         0.19908971215636    0.88166849199833    4.36992313252904
H        -0.07124744141713    0.41226978835701    3.43890360486581
C         1.40432382508701    1.55615707462186    4.50984419593287
H         2.10328660322635    1.60939387508758    3.69046015861419
C         2.64940366574271    4.53793531331372    7.86398095250612
H         2.95620264630130    4.42623010016939    6.83849027128761
C        -3.67678381665719    4.45336887624345    9.90955109796148
H        -4.39488539898918    4.23267993841532    9.13458319092477
C        -4.40654467949605   -2.20455781901118    7.96270795947174
H        -4.61291332250945   -2.40164094590439    9.01576687838127
H        -4.06503244580110   -3.12385539540455    7.48620753024528
H        -5.31921551554226   -1.86012097535370    7.47585525170615
C        -3.85358856070302    5.56220268092451   10.72226399248788
H        -4.70709859805462    6.20590909023449   10.57764560699590
C        -2.93707038727446    5.83740589350137   11.72126242253325
H        -3.07299799027190    6.69610210306829   12.36018480589910

