39
CSD_code = BEWRED | q = 1 | S = 0 | Stoichiometry = C17H16ClN4Pd(1+) | MND = 4
Pd        2.99894219545683    6.30312514667960    9.61227503442240
Cl        2.01379754225280    6.25565317275309    7.61441739209535
C         4.98886263255559    7.48136491500696   11.33260642288425
N         4.29530584873967    6.33342476487361   11.24459854484861
N         3.13030960850639    9.35639000935614    9.07987689766589
N         2.48453521971808    4.36378558872120    9.72833615131185
N         4.50499058939440    8.48795547760124   10.50206931006122
C         1.96049493897149    9.54000660921494    8.24751784027838
H         1.86189759765481    8.66566710589291    7.59500201647861
H         2.09116771940582   10.43952914054072    7.64479805363622
C         3.51800242149338    8.19416995285005    9.60337486825270
C         4.73923297588391    9.84355352041294   10.50513156008287
H         5.47403902640612   10.31593048716044   11.12223041415424
C         4.65773391744893    5.30402943538653   12.00830706366657
H         4.07053486428077    4.39872700122262   11.91206986178414
C         0.36284630218560    8.60934817765090    9.96102124475953
H         0.94278186121355    7.67159767341294    9.97475981590921
C         6.06900591646460    7.63699492974534   12.19143369125358
H         6.61088338056439    8.56725428496763   12.23038687687626
C         0.73214803397571    9.65906538620316    9.12622992056108
C         5.71916640837813    5.37814464727528   12.89313838383569
H         5.97841116178748    4.52494883087463   13.49763091347330
C         1.99009592011432    3.40115156363781    9.34042004771924
C         1.39004561793594    2.19695580128269    8.88835195197884
H         2.09800631615203    1.37157531570668    8.96643325238570
H         1.09400373514682    2.31976711546861    7.84539782037251
H         0.50597859209530    1.97564061322218    9.48678541230849
C        -0.02927765021368   10.81884220150540    9.11493900863095
H         0.24614513148031   11.63735355054464    8.46641471627742
C        -0.75540073961692    8.72143639881030   10.76759963350829
H        -1.04032899219880    7.90120675899349   11.40864559509111
C        -1.51393512542731    9.88132109807148   10.74843700351880
H        -2.38696350351768    9.96508391312792   11.37658365288534
C         6.43781971003930    6.56275006241928   12.98385511489104
H         7.27380652203311    6.64932708299210   13.65935729303490
C        -1.15126930614468   10.92774983229719    9.91956154482760
H        -1.73990140560614   11.83164107910024    9.89792594446132
C         3.87027625056138   10.37883147078024    9.61695426370906
H         3.72440876448745   11.40029988416503    9.33092546610719

