64
CSD_code = BEWRAY | q = 0 | S = 0 | Stoichiometry = C23H37IrN2O | MND = 6
Ir        7.68721599263986    4.10937445150038    4.37028633493529
O         7.49260728991751    2.57726324947676    5.70833972912442
N         6.73869269258165    5.62290313830902    6.84902814976981
N         8.87831972657000    5.40700966835348    6.84690308696485
C         7.77680374400529    5.20884540446567    6.09167927047379
C         7.18501746334778    6.06096559278852    8.06632842426986
C         8.53121309938241    5.92502630633186    8.06500377317358
C         5.35864862483351    5.42597376342956    6.46842841227346
C         4.82529013962938    4.14069778076859    7.10577095996313
C         3.40351295806895    3.87978107397906    6.62333109528335
C         2.50087087387251    5.06805563162595    6.94600005380230
C         3.05113011557031    6.34791991156502    6.32190189169720
C         4.46993194985954    6.61680960777656    6.81762830148139
C        10.19080552982611    4.94255103864757    6.46016547792057
C        11.29933449157817    5.93126321234402    6.81108329973243
C        12.63422043368087    5.38908342078230    6.30598506628804
C        12.92254395661006    4.02194655978473    6.92096787409430
C        11.80069485128427    3.03833290690331    6.59745043134584
C        10.46103839179386    3.57344604419225    7.08861748739089
C         8.36116902316072    2.77850214408337    2.84801910282942
C         6.99102074862979    2.95892041948724    2.69326997430139
C         6.39096755023006    3.80374878889639    1.58931783611513
C         6.17127779603393    5.26515174960211    2.02169920842052
C         7.11843784985083    5.70745612210185    3.11718819567671
C         8.51931896487720    5.55346233541159    3.05209609869497
C         9.21902676365411    4.95646263986233    1.84560447170379
C         9.41143735750643    3.43480188383291    1.98064873419656
H         7.37710994399945    1.72796833498373    5.27607866420553
H         6.53419683163315    6.43298607303857    8.82967514717988
H         9.24476129021641    6.15934627520685    8.82697440477364
H         5.36752386134090    5.28307768672101    5.38134278574131
H         4.83918991946999    4.23637480520628    8.19416023846883
H         5.49147943558745    3.32283989723094    6.82155997762531
H         3.41628059781643    3.71595147261741    5.54411805431718
H         3.01251068381189    2.97662025023485    7.09485441372380
H         2.43903376402717    5.19242941062598    8.02980445471913
H         1.49134032536795    4.88113543571561    6.57456581295199
H         3.06213772205327    6.24550525762895    5.23476326215637
H         2.40610614465958    7.19264145544371    6.57253721802333
H         4.44551196102424    6.76384112816575    7.89927131289796
H         4.86690370068348    7.52557631023346    6.35937771868831
H        10.15022739848782    4.81087858504907    5.37223455420409
H        11.35711981142107    6.06447328312542    7.89327259847212
H        11.08847044572108    6.90322014943171    6.35924723053789
H        12.59784228056825    5.29690418410468    5.21848045902145
H        13.43534791972320    6.08744191552795    6.55691939401549
H        13.87333336729888    3.64065783291605    6.54321921575403
H        13.01248564050417    4.12519740264493    8.00504090157145
H        12.00674464283512    2.07276201445726    7.06233289118222
H        11.75123565247049    2.88652117089907    5.51751344638588
H         9.64501785083625    2.90507998682122    6.80471922907470
H        10.47115296097607    3.66379347015882    8.17747761594397
H         7.04464329104921    3.76301314041873    0.71618731404901
H         5.43195776032273    3.37434679740227    1.29103925738994
H         5.15066079808907    5.37451993395222    2.39654330741847
H         6.26649384779114    5.93199872365127    1.15659776430119
H         8.64575730491615    5.18731787358535    0.94598538749553
H        10.19823085523478    5.42617208532902    1.72766092363983
H         9.41391406501321    2.96470934690992    0.99031097104106
H        10.38780540313230    3.23870030524052    2.42985805904312
H         8.70367733351433    1.84720363458767    3.29804537774404
H         6.33579056944818    2.16994953907262    3.05795030910560
H         6.75118994268797    6.58563649400947    3.65081830826884
H         9.10906629727267    6.31135349134728    3.56651927694865

