75
CSD_code = BEWTUU | q = 0 | S = 0 | Stoichiometry = C31H39AuN2O2 | MND = 2
Au        9.03612893962244    3.02575146892121    4.26208012307629
C        10.93388062373730    3.26444735860957    3.65409917940722
N        11.35976177378262    3.83331118449864    2.51246789382683
C        12.72784225771422    3.79596682205232    2.43208302328623
H        13.26074941558095    4.20024938496604    1.59654382244573
C        13.16534791485653    3.18455375389258    3.55824423367462
H        14.15401528044750    2.95124555631854    3.89539130223922
N        12.05039030818264    2.86797506985031    4.29048949304078
C        10.49454910194227    4.39570809920606    1.53530518044556
C        10.19975217327185    5.75878067869943    1.60185213032457
C         9.34067787655773    6.28584930112234    0.64771570657724
H         9.08314294867611    7.33261933452754    0.68009737268102
C         8.80193367799743    5.48306607742224   -0.33937270043979
H         8.13404410379329    5.90914181159687   -1.07278205398895
C         9.10528926665675    4.13628210467374   -0.38613841586221
H         8.66900279224525    3.51976873716241   -1.15622607565962
C         9.95488958517000    3.56548930528223    0.55174201262655
C        10.75392824263520    6.62984822217830    2.70475759948519
H        11.52645613236062    6.07549280490536    3.24819695910730
C        10.26087724095672    2.08712680039440    0.50632044053699
H        10.96210773593965    1.83845054320887    1.30948386389083
C        12.05378108406672    2.20768290541294    5.54872236498406
C        12.03764318920261    0.81196335300458    5.57756235613985
C        12.03093662125302    0.18692724831236    6.81680973770741
H        12.00745961449386   -0.88992646503021    6.87203824536506
C        12.04448724866490    0.92781156445466    7.98290833495619
H        12.03825877301065    0.42530745352077    8.93848586666254
C        12.05468120794277    2.30819736072935    7.93207008434350
H        12.05292944265353    2.87377855659925    8.85059046697177
C        12.05629227693435    2.97507243099461    6.71447970428750
C        11.98123434014206   -0.00175394308734    4.30610902447861
H        12.12902080044068    0.66092805573673    3.44696582632713
C        12.03656983481121    4.48464538570837    6.66890676136545
H        12.06804363315771    4.81525387442980    5.62574108456919
C         7.20618973250405    2.77833461108540    4.83078979466568
C         6.05879644169123    2.60451149692789    5.18052068099940
C         4.69299198092863    2.43607736385885    5.54937391806040
O         3.74864569430635    3.02771122593210    5.07583916200207
O         4.55627734571850    1.50236867192131    6.52831393082703
C         3.23192964596731    1.26023948775796    6.95592889562608
H         3.29616132274625    0.52057324992014    7.75103253427597
H         2.62529481200724    0.87936140141121    6.12953486875320
H         2.77309150976865    2.18088132012628    7.32695152892381
C        11.40466967410115    7.89970676936272    2.15334322776805
H        11.89023912131965    8.44596855334830    2.95903450112651
H        10.66699467739813    8.55497341153004    1.69893410173759
H        12.15384639728069    7.65215915540793    1.40372553950266
C         9.63584868033573    6.97031118407686    3.69356022636838
H        10.02868718598386    7.56413756657944    4.51590019255170
H         9.19744642918833    6.05953475082982    4.09900451527617
H         8.84920689310350    7.53657808692553    3.20174728589287
C        10.92053075733102    1.70715408841492   -0.82127102155069
H        11.82257511593988    2.29442314615254   -0.98321280130454
H        10.24569938617725    1.87977719172481   -1.65517968193327
H        11.19117209079729    0.65369326726036   -0.81414365778571
C         8.98433694824029    1.27617240899458    0.73867086382552
H         8.52377745580077    1.55935532934259    1.68384022989182
H         9.21679224061339    0.21414191643198    0.77109604102046
H         8.26484804290436    1.44694594829972   -0.05742649969144
C        13.08432253119242   -1.06086984109614    4.26392609993945
H        13.08270236257152   -1.55829345228077    3.29654354190182
H        12.93492816540143   -1.81507626690501    5.03140888963724
H        14.06053979523908   -0.60428807903693    4.41562801873443
C        10.59789230305963   -0.64325504546578    4.17121135639219
H        10.52793852990621   -1.19224436441955    3.23492242621802
H         9.82230417985794    0.12115773978958    4.18551404098606
H        10.41249389544091   -1.33219846878839    4.99109834731763
C        13.25863752000826    5.07019478847116    7.37979290284731
H        13.25786838882631    6.15398487458082    7.28777565262668
H        14.17783761099543    4.68721143617666    6.94018105169247
H        13.25395841845709    4.81823843431993    8.43674246973310
C        10.73688728442963    5.01062358618166    7.28158699849768
H        10.69370156243267    6.09381838487240    7.19406870810124
H        10.66858537513369    4.74729520841058    8.33364329799381
H         9.87734703594724    4.58639726140105    6.76500687191915

