108
CSD_code = BEWTED | q = 0 | S = 0 | Stoichiometry = C39H63BFeNP3 | MND = 4
Fe        5.85110575837608    3.04398257918669    3.60024572951374
N         5.87960642911758    1.22144244584300    4.07657421111359
P         6.79746413287757    5.04071879686009    3.04108793068330
P         4.39703510741495    4.06862873104590    5.00270602605685
P         4.41324387856100    3.25413297960274    1.88008597048385
B         4.07902078800431    6.05650695369077    2.82139402634353
C         3.25186101436422    7.42929549362888    2.55660674473082
C         2.09070436304245    7.51007369476576    1.79013371968146
H         1.69911952721305    6.62097845681539    1.31584020997765
C         1.40207204959508    8.69770054399293    1.60998734443853
H         0.50538353172942    8.71464588889928    1.00375453277544
C         1.85469361721692    9.86229153857614    2.20217385738882
H         1.32245019918212   10.79313418870492    2.06205993450096
C         2.99792669413613    9.81573721070114    2.98096639058820
H         3.36255479283430   10.71662770299743    3.45780602855240
C         3.67231754411227    8.62118268238720    3.15039923707519
H         4.55746821219896    8.61678543106051    3.77352185160522
C         5.65476895038091    6.29629702708410    2.38136849540190
H         6.00977718732639    7.27620342596741    2.70797928964200
H         5.72438641842284    6.28062801889994    1.29064081182504
C         3.98184630305501    5.75786760512210    4.44822548691676
H         2.98760873770530    6.00823634779999    4.81548096237712
H         4.67242532007601    6.42741799905170    4.96632838920761
C         3.44502497716763    4.79660646634571    1.96265900804898
H         3.25695188530886    5.09780371989928    0.92826950106482
H         2.48565984864249    4.52028649096480    2.41004555732107
C         9.36021767114306    4.14235253724408    2.22020485326791
H         9.99281277961034    3.86104208811146    1.37826314146516
H         9.02446597452300    3.23192418210643    2.71251664051295
H         9.97198289330887    4.71050948857280    2.91652929835044
C         8.16634539108883    4.95600675056055    1.73461857746595
H         7.68900881372933    4.37131287796672    0.94492342738014
C         8.62058634906572    6.26384492629636    1.08731878151598
H         9.35656593245332    6.78271570713290    1.69203167019003
H         7.78531805479674    6.93466771789329    0.90571584790145
H         9.08502761325451    6.04028485694563    0.12650180788668
C         8.30324963900119    5.02565519372051    5.43676032314473
H         9.23414979116198    4.67195010302167    5.00175666250780
H         7.67624227315917    4.16443228220812    5.65524799670997
H         8.53987297999002    5.53149765947620    6.37323883656160
C         7.56852664278555    5.96903802692822    4.49153899812831
H         6.67809845397986    6.34269330230913    5.01109591802614
C         8.44026183230165    7.17871855994216    4.17310740834164
H         8.57092108989076    7.77328756652794    5.07794289821945
H         7.98738358468043    7.81591213446401    3.41838466990981
H         9.42791989051154    6.87525651829368    3.83608721763676
C         5.60094649186607    3.15044740187320    7.41974764820261
H         6.42571348457882    3.41238797723610    8.08248480930445
H         5.96544422981136    2.44986602846591    6.66658529607967
H         4.85098437277335    2.63765787361204    8.01463274839109
C         5.02741515922485    4.40126310709765    6.75230814228247
H         5.86218709656370    5.08451478818896    6.55738619463131
C         4.06546374832365    5.14160479686824    7.67650211462059
H         3.23671879860445    4.51091768788507    7.98466689215642
H         3.66826611716631    6.03085360899148    7.19307997107166
H         4.59673124652257    5.45372595937070    8.57612169344444
C         2.73582384521623    2.15631860457186    6.28562243122811
H         2.65039391053638    2.58210462900120    7.28156716417300
H         3.64970170665677    1.57269416927991    6.22697642090646
H         1.89341099065142    1.47920157645643    6.14638882262350
C         2.71005606979962    3.25084178434776    5.22102411174706
H         2.56942695789543    2.77289265025388    4.24600792069649
C         1.50104765544407    4.15897051915417    5.44056828393516
H         0.62043807451098    3.53299244273093    5.58746109719446
H         1.31428534203654    4.79402748614068    4.57866908267769
H         1.61388187256031    4.78579484974895    6.32046978626062
C         3.68007777161719    0.61100666252494    1.17537899495637
H         2.96518101282150   -0.19088205126005    1.35706015389720
H         4.56829475640122    0.41417434400579    1.77174782558582
H         3.94755179344663    0.58428624692900    0.12172195576919
C         3.07623663395851    1.96009764591204    1.55108036972093
H         2.62091868948209    1.85890487503962    2.54259438237362
C         1.93173046349507    2.32794132606833    0.60757734145846
H         2.22439835406245    2.26934473646552   -0.43481560259968
H         1.55230662219789    3.32609494764875    0.80627981696892
H         1.11380787447415    1.62311005224301    0.75959076761491
C         6.43525453383571    2.34950167917674    0.16251294096528
H         6.02818152018699    1.37795453007963   -0.10377449153098
H         6.94265611857799    2.25224075307043    1.12618260992347
H         7.17311667952914    2.61632290587914   -0.59478105843129
C         5.33142293174845    3.40304397311170    0.24299953385242
H         5.79432270032240    4.39094894949361    0.34648292811510
C         4.52576790674176    3.43139865196063   -1.05093096554318
H         5.16455599101319    3.78312706957115   -1.86179784057089
H         3.67815332344805    4.10776265939832   -0.97861747192465
H         4.17052444715885    2.44058654381580   -1.32114082225249
C         7.25714868180015    1.08393727799490    3.82735726826940
C         7.72096508491856    0.33888054901956    2.72764159465774
H         6.99880739560674   -0.13482928582530    2.07726194245482
C         9.07207752457579    0.18225005581450    2.50475420502238
H         9.40942765594404   -0.39211080224147    1.65449020130940
C         9.99998778231943    0.74721842865251    3.37051725722896
H        11.05630920124110    0.61212461422272    3.19521280867629
C         9.56230962813273    1.46379508400833    4.47015362925307
H        10.27633193281159    1.88488925970209    5.16295165538451
C         8.20656928721439    1.62779349876173    4.70344215202182
H         7.86424642715438    2.10939288186021    5.60878742173056
C         5.23337282210532    0.05729514337983    4.42390730045256
C         3.84004238132437   -0.04940469820559    4.35005700186171
H         3.28899249789563    0.79974864911490    3.99541100992753
C         3.18856142455063   -1.20659912171637    4.71552328449259
H         2.11154749990069   -1.25658693291857    4.63901241978473
C         3.90111579844067   -2.30351333105236    5.17366984693487
H         3.39082619635916   -3.21145751239931    5.45728435456639
C         5.28036427287485   -2.21480225832661    5.26642457313369
H         5.85260204231472   -3.05634665737194    5.63068878019103
C         5.94078017063277   -1.06050509448193    4.90187872432537
H         7.01688207812885   -1.01392909002113    4.99582434589242

