79
CSD_code = BEWZIP | q = 0 | S = 0 | Stoichiometry = C35H38CoINP3 | MND = 6
I         7.48614089688264    2.75428286030613    7.40523825970984
Co        5.72524973052722    4.15771821653243    8.68919510576217
P         5.95921935151033    5.93142308747911    7.32615666887184
P         7.29620783914745    4.60184932720995   10.17320804037311
P         3.90423699133586    3.38621169458676    7.70076990457124
N         3.97669537839411    4.74682877602073   10.70947903703805
C         4.84123931582769    7.12259058361518    8.11921578898131
C         4.18895493129139    6.60630230026657    9.24465048785243
C         3.29872553846280    7.41317803338191    9.95672777730755
H         2.80366724316863    7.00022112448510   10.82267515940828
C         3.07561421541095    8.71270114238707    9.55233567365918
H         2.38653917930372    9.33703138188157   10.10247804836788
C         3.74452413559768    9.23108809770274    8.44971105602584
H         3.57813711048390   10.25595979276206    8.15091367560302
C         4.62949224460087    8.44324371967412    7.73625039061936
H         5.17012869002436    8.85886449213720    6.89608940752251
C         4.49049936435887    5.24987835483741    9.66072408554856
C         4.37689441516728    3.45881405347153   10.97604277246286
C         5.25876712030381    2.87458587047731   10.06770426912927
C         5.61070082802964    1.52703137332589   10.25295461634723
H         6.26394031490188    1.03037725083224    9.54938440181968
C         5.13002970726241    0.81678433892773   11.32169562453876
H         5.40873442901589   -0.22090198943370   11.44634985168598
C         4.27451077971581    1.40626331233412   12.27647455808199
C         3.87908883534135    2.75619812523666   12.10284614971334
C         3.01398264583755    3.35220294426452   13.03830869055163
H         2.72271113335623    4.38078351037547   12.88409095201363
C         2.56190423173129    2.63884401700422   14.11425271090267
H         1.89973337524868    3.09905701236018   14.83373512164084
C         2.95333196127940    1.30373494497305   14.29426465206482
H         2.58727186940464    0.75590043211930   15.15077381510361
C         3.78866923010283    0.70008857419747   13.39529633640387
H         4.09136362289723   -0.32920579672392   13.52949316983506
C         7.47145048348131    6.94046352521796    7.09642367430868
C         8.44986377823587    6.53237938599823    6.19435780286136
H         8.31527895813688    5.63381048748821    5.61337932210190
C         9.61212463403276    7.26637192367649    6.04285421234294
H        10.36024529977407    6.93795912377875    5.33690116549396
C         9.81842703906521    8.41177861880190    6.79262470264749
H        10.72284781776624    8.98857975726222    6.66857908376991
C         8.86382611191935    8.80794310414804    7.71456826368332
H         9.02411712292727    9.69027478870797    8.31783190611023
C         7.70369088040650    8.07259395270079    7.87619068154383
H         6.98163377323245    8.37938849440691    8.62122250035373
C         5.41238219253220    5.90142715660880    5.57155376335303
C         6.01973326919665    4.99709416576822    4.70138823627127
H         6.76723522406266    4.30686969136749    5.06402594593737
C         5.65352361224312    4.94482291213974    3.36817930996930
H         6.13980598360268    4.23796378121877    2.71229962588828
C         4.66553629538188    5.78385964251255    2.88313094835485
H         4.37925216698655    5.74562602312173    1.84272110443554
C         4.03646531207402    6.66521653026590    3.74552737173470
H         3.25246570273314    7.31413268542255    3.38190932397100
C         4.40259828803339    6.72404153515123    5.07853582837252
H         3.88491744895227    7.41296311280772    5.73057046348982
C         8.01956568201378    3.22691998176114   11.14090413039274
H         7.27716197440618    2.80852655564926   11.81845451110042
H         8.86197003928234    3.61251019537744   11.71633382477764
H         8.37124547585433    2.44711038926535   10.46672174756748
C         8.85833064871485    5.38682144304866    9.61440514228672
H         9.28394642417971    4.82765448919795    8.78297382112585
H         9.56545571408097    5.39247167958657   10.44419935561437
H         8.67182875538535    6.41021027027892    9.29726159703391
C         6.87083113231404    5.74672247332821   11.54036402454873
H         6.55958509809020    6.70803380161716   11.13055591835889
H         7.74328456083633    5.88730784619020   12.17911701539205
H         6.05195832268152    5.33529269808748   12.12845884769492
C         2.81857504649275    2.19495687612664    8.57090038467835
H         3.37809475134120    1.29434349054134    8.82069939504952
H         1.98626391452751    1.93839373451427    7.91428244800543
H         2.43550047886243    2.63607525922705    9.48984288670511
C         4.13214132141633    2.46333294512737    6.13736126586378
H         4.64985695903987    3.08290953069888    5.40706775837193
H         3.15952998249592    2.16568705104121    5.74505568004119
H         4.73798282041569    1.57974725971613    6.33567021530208
C         2.60775329822124    4.58627260124479    7.20214184499315
H         2.19449411551588    5.05839377863815    8.09302198791370
H         1.81581063782494    4.05506562726024    6.67357254454613
H         3.01990479525765    5.35294866477628    6.54977215607336

