56
CSD_code = BEXJOF | q = 0 | S = 0 | Stoichiometry = C22H30ClN2Rh | MND = 6
Rh        2.05304637846507    2.97255624710245    3.30950058585368
Cl        1.10518523716825    2.20032986226455    5.26075881961741
N         3.10207181630715    3.80141525727577    7.03643417535858
N         4.30955661953159    2.47299229478256    5.80916074117787
C         3.50834585243476    3.56037540273167    5.77045383433253
C         3.61287064430118    2.83211859942928    7.87381232282768
C         4.37637338182453    2.00847930949960    7.10925244249131
C         2.13830728873541    4.80148960317105    7.40330184810331
H         2.44207938985452    5.77449048456561    7.01460136012347
H         2.06329332475183    4.85698173712728    8.48524637423050
H         1.16394306666076    4.53207483171518    6.98766172563409
C         3.30959549075736    2.78412680693600    9.32720844906254
H         3.84353548100018    1.95849840245792    9.78741024429612
H         2.24270152682384    2.63146484034067    9.48583321543343
H         3.60826978893693    3.70794318790582    9.82317245877385
C         5.17656422240667    0.81263947459696    7.48130114276832
H         6.15921452836222    0.84635330379892    7.01322986733503
H         4.67440091390967   -0.10338642217249    7.16836540648950
H         5.30763780293881    0.77410131514103    8.55861155880261
C         4.69549708692125    1.71142792907783    4.65503199321334
H         3.87436716285325    1.81080160432347    3.91005675139934
H         4.80801700082025    0.66565774103466    4.93024779075559
H         5.62177587781733    2.07190795281647    4.20561410705740
C         3.14319563999170    4.35987635282257    4.61452739689719
H         2.30040595773534    5.01099721902165    4.88355089205110
C         4.21017048380986    5.19214284878355    4.01722986645796
C         5.57650009590122    4.93382829122458    4.15421444341134
H         5.91391312786514    4.10742432789615    4.76037183160672
C         6.52324686726374    5.74456356959061    3.55645333838609
H         7.57281581588360    5.51336817340950    3.67719069529342
C         6.14111458762370    6.84976248985406    2.81693426851240
H         6.88282354756207    7.47632990044160    2.34446747988518
C         4.79346638659596    7.15650709094804    2.71740514105994
H         4.47883224465776    8.03751884371574    2.17576335222236
C         3.84888949286627    6.35002969720597    3.31709368350491
H         2.80364107283559    6.62262247805556    3.25915168340694
C         0.37789300854880    2.15184432245704    2.25287044663765
H        -0.42307289520910    1.98155545170233    2.97187441419049
C         1.41598749568899    1.23184466354661    2.21648308391194
H         1.37801971357131    0.40951235954737    2.93218207071447
C         2.25132410413332    0.96164664214066    0.98320911934260
H         1.63335911783664    1.11982887991780    0.09803724107477
H         2.55325102766600   -0.08811638203584    0.98070523880159
C         3.51357279279743    1.84466428725793    0.92046234406654
H         4.35484717863391    1.29964196990281    1.35752912401926
H         3.77511767351898    2.04888270218026   -0.12405461391397
C         3.36197192900121    3.15769638159193    1.65811636672893
H         4.31433840243299    3.59474056611694    1.95618709256090
C         2.28862263309058    4.02847546868200    1.47595658203188
H         2.46779139238128    5.07864869895440    1.68803291964809
C         1.18167681695429    3.77603960746365    0.47398211851223
H         1.57877253406171    3.19367429353621   -0.35898185330640
H         0.84460826131621    4.73151351761725    0.06581516985603
C        -0.01942288001768    3.05553261541431    1.11052434142952
H        -0.71678064809319    3.80237918952291    1.49936628404124
H        -0.55804286265455    2.47098371564021    0.35558122177430

