23
CSD_code = BEXJEV | q = -1 | S = 0 | Stoichiometry = C8H12Cl2Rh(1-) | MND = 6
Rh        1.41919008892278    1.70429660861069    6.95363261805110
Cl        2.90603477520538    3.20637368996895    6.12566539054979
Cl        3.05888982301277    0.78491373438035    8.22586316044531
C        -0.14980505471408    2.99178874267946    6.43992438633727
H         0.22455197636915    4.00607874964072    6.30130543791636
C         0.05532058777303    2.08633771693336    5.39177820082327
H         0.59928776470650    2.45364170097427    4.52240093849279
C        -0.89389498269301    0.93897461507073    5.10424217352132
H        -0.91878499321660    0.75289747241978    4.02659879122212
H        -1.90508809146628    1.22686383844195    5.40284577715547
C        -0.46761919980444   -0.35124674047483    5.82866177768538
H        -1.34783587021737   -0.96201978238992    6.07285148557360
H         0.15978381341839   -0.94393617883605    5.15713143540564
C         0.32848952603402   -0.07802148877210    7.08798667001513
H         0.98505170933632   -0.90043941897604    7.37204604447980
C        -0.09015911498069    0.78750841582288    8.10572074158824
H         0.29212909406245    0.59460847452690    9.10723324137779
C        -1.42297145789228    1.50979430333619    8.06573992256329
H        -1.80699798920829    1.61671977590408    9.08442578155912
H        -2.14396822536353    0.90155168325527    7.51386323350270
C        -1.29687127046047    2.90409728536945    7.42515156713222
H        -2.23558027741916    3.18349813977836    6.92694384392047
H        -1.11835263140452    3.64091866233400    8.21338738068290

