23
CSD_code = BEXJAR | q = -1 | S = 0 | Stoichiometry = C8H12Cl2Rh(1-) | MND = 6
Rh        4.90055486740122    0.16951839636840    4.00795601810831
Cl        5.61596829596682    0.96539618342604    6.00974312725315
Cl        2.99356621454167   -0.57919160261894    4.98621554774957
C         4.62441963912367   -1.20072849861626    2.44936589766647
H         3.94685513815951   -1.99538915691758    2.76253519270369
C         4.04946702036564    0.02256041260089    2.08403759599637
H         2.96596830964300    0.10187833374765    2.16384193940324
C         4.67719446175207    0.94571010767243    1.05769322738699
H         3.88709159895284    1.46733555568622    0.50994313855575
H         5.23100159840973    0.34812230226859    0.32925933931952
C         5.60496822013062    1.98412005619434    1.71483500664307
H         6.41920565034504    2.25805260635119    1.02970346887324
H         5.03248408093170    2.89393507489894    1.91542641639853
C         6.18475839711485    1.50055662952622    3.02791954702423
H         6.47081439110242    2.31051607206778    3.69918119878875
C         6.84063651457433    0.27411275555646    3.18996883872334
H         7.57206513421232    0.20803582317757    3.99449097585299
C         7.07914326721462   -0.68302383487864    2.03824569938971
H         8.02406149689348   -1.21055386520507    2.19701344205560
H         7.18312936189590   -0.11113595476105    1.11276610240390
C         5.94229673293364   -1.71313331838255    1.90635774613745
H         5.81812460146411   -2.01358912320137    0.85663772879180
H         6.21072500687061   -2.61140495496062    2.46926280477440

