153
CSD_code = BEXKUM | q = 0 | S = 0 | Stoichiometry = C72H76N4Zn | MND = 4
Zn        4.82083639894598    1.03964323079141    8.90212723841974
N         6.29008452306972    2.15305516796437    9.74931210986784
N         3.58384732787087    1.52839534867699   10.43483495018746
N         3.34725822443905   -0.06207531014639    8.04787270771245
N         6.06171235854355    0.54170172024271    7.37552156625675
C         7.55660603731955    2.30236197686726    9.28778351067388
C         8.31972786588662    3.11222774608552   10.18976151366305
H         9.35164270026568    3.37048490242296   10.05327074172768
C         7.48864188335874    3.45310514619533   11.20411746820578
H         7.71131338411284    4.04247454840679   12.07204280604531
C         6.21629219078470    2.85463631936181   10.91559311537300
C         5.09174190275667    2.96747375140282   11.73160141663616
C         3.86806101277234    2.34642032532700   11.48761203024003
C         2.70495993726550    2.49508293772077   12.31553712356658
H         2.64864498310017    3.10199090066107   13.19795101766674
C         1.72739439621684    1.74332748515433   11.75431467509571
H         0.71707282752881    1.60191806019061   12.08508970059667
C         2.29083302520737    1.14601509512991   10.58055542753718
C         1.58559096092986    0.29222935162842    9.72146361151103
C         2.10377696165132   -0.27128193486378    8.54769045605090
C         1.36931941500046   -1.15539095799951    7.69292136034735
H         0.36388261724410   -1.48236711604428    7.87319026421670
C         2.19153290343768   -1.47348142991902    6.66397946641154
H         1.99325493814705   -2.12513892069516    5.83560814097887
C         3.42607578519406   -0.77666567600562    6.88992330294575
C         4.53566627138373   -0.85094808993773    6.04904038111307
C         5.75667101272479   -0.22206810206132    6.28842749299452
C         6.88325583147706   -0.27488877325319    5.40026866810813
H         6.90487611198322   -0.78985045936987    4.45982575173101
C         7.87054729589064    0.45148720498295    5.97772356104075
H         8.86119074996564    0.64426277447386    5.61474482516679
C         7.34277821225597    0.95555891187898    7.21023818533051
C         8.06620248176105    1.76160711243308    8.09944830507197
C         9.40194254060644    2.05592225449000    7.77421726372779
C        10.55276890208518    2.31016939745646    7.49824968848116
C        11.89126109969301    2.61250915364535    7.18618938248664
C        12.49056947727620    2.09707079056438    6.03633855368469
H        11.91664971458390    1.45829345040559    5.38053883366506
C        13.80516768927763    2.39731202845134    5.73567835876124
H        14.23949283329329    1.98263602204348    4.83958277809293
C        14.55938054684600    3.21680390995289    6.56649053877209
C        13.95413061978132    3.72880413742777    7.71408807488871
H        14.52884761831892    4.36812245181885    8.37015618071334
C        12.64516426140584    3.43746748119048    8.02667563659212
H        12.19176695552208    3.84271741211177    8.91962763377685
C        15.99564606790182    3.58012144652439    6.29832872063260
H        16.07618531228876    4.67219068918198    6.29707446055793
H        16.60003393609064    3.22235321159254    7.13880429650046
C        16.58934595758010    3.04131730231970    5.00040598054283
H        15.99798681967678    3.39337854199045    4.15208717553228
H        16.56016780499449    1.94942989875985    5.00735275583330
C        18.03601281765056    3.49761748318982    4.82171165420862
H        18.63072972222106    3.16003738909906    5.67426652582837
H        18.07226970529246    4.58983048812341    4.80660727669050
C        18.65148030753432    2.95661023546467    3.53367179404533
H        18.62228424633548    1.86443307273676    3.55050191709316
H        18.05480793877075    3.28940078870226    2.68090441877993
C        20.09493533185708    3.41754077483542    3.34702268361405
H        20.12549082989677    4.50953021523823    3.33371359178107
H        20.69342188021218    3.08090604456702    4.19674398796095
C        20.70020480442266    2.87887737590963    2.05661313887499
H        20.69313637056321    1.79096122950761    2.05720610184422
H        21.72838718747189    3.21532026348117    1.94507779864743
H        20.13103303600191    3.22335279606138    1.19579623285371
C         5.20734744865739    3.80859268548306   12.94219873533026
C         5.42445812061127    5.17878278836899   12.83128698953555
H         5.49659457018814    5.62483430845207   11.84975901391041
C         5.53128052999540    5.96502296243475   13.96146847510675
H         5.68872681787406    7.02939232729878   13.85743965655096
C         5.43559195063230    5.40867046842324   15.23231697202685
C         5.21779509853866    4.04131904138555   15.33835370426776
H         5.13613158491538    3.58668839107584   16.31555928338275
C         5.10014199424639    3.24983941896591   14.21071061329653
H         4.93645373025741    2.18633887419272   14.30917256790031
C         5.59783743668517    6.27298286426128   16.44908553473982
H         5.25213722845201    5.73931933061932   17.33503347448097
H         4.98513698253791    7.17174289497675   16.33832960481506
C         7.05798692335844    6.70547048549133   16.64081942659762
H         7.11665475788627    7.39118705969964   17.48750092372165
H         7.37729863113490    7.25505490431496   15.75192108893307
C         8.02236028079718    5.53757664875384   16.84917063976729
H         7.93388008003330    4.85624433736699   15.99901975211206
H         9.04202591973312    5.92772643712482   16.84698249442620
C         7.79973152137703    4.73157449152612   18.13085432259324
H         6.81906038459523    4.25417931699471   18.09160648345835
H         8.54518954499285    3.93244348231528   18.15806196695519
C         7.89843487474075    5.53401022628570   19.42926206522035
H         7.69313252610415    4.85606399107030   20.26190099476378
H         7.12963083606865    6.30857203732922   19.44744196081900
C         9.26656473719898    6.17137687452443   19.64104646741682
H        10.04993503298224    5.41863947883804   19.58097596255910
H         9.31672930549254    6.64032944190469   20.62141359827186
H         9.46352343412379    6.93378270388084   18.89180319771298
C         0.25656634882935   -0.01573477147830   10.06129832225075
C        -0.88746036769943   -0.27509949890851   10.35977401121041
C        -2.21887622625305   -0.57110424906899   10.70634308830503
C        -2.80107013351790    0.00174193520195   11.83807280523956
H        -2.21870227800381    0.67549798980786   12.44995441201320
C        -4.10926316487316   -0.28539179835063   12.17515155935743
H        -4.53130702341851    0.17527034949270   13.05454983119735
C        -4.87412101735265   -1.15034214804306   11.40159617990109
C        -4.28549381428738   -1.72117023442284   10.27361941227943
H        -4.86743621540208   -2.39673337516544    9.66174082371890
C        -2.98291479886400   -1.44175648004859    9.92364559016982
H        -2.54266255841360   -1.89266270014131    9.04612450459017
C        -6.30880068599623   -1.48667541041274   11.70958742738748
H        -6.94158359670336   -1.00625115031284   10.95493894725172
H        -6.44059974826901   -2.56641712183351   11.58880425398993
C        -6.80117916572052   -1.08248319978998   13.09662725712388
H        -6.77877511479352    0.00487513394104   13.19569887732717
H        -6.14012995215176   -1.50707469923273   13.85599150366767
C        -8.22858257838496   -1.56750489070737   13.34286456845049
H        -8.25991257877868   -2.65737629752616   13.26739884021550
H        -8.87998576717693   -1.16064567836123   12.56736042081295
C        -8.73794846194645   -1.14508070108644   14.71927408781258
H        -8.75623977895800   -0.05413788037925   14.77863369265952
H        -8.03606106997469   -1.50419633035470   15.47643989323932
C       -10.12928067133516   -1.68877644259287   15.04580979535804
H       -10.12963102050558   -2.77433658392837   14.92298877571103
H       -10.34762648747955   -1.47593605446510   16.09516593437644
C       -11.22977792081486   -1.08119168382156   14.18367258274962
H       -11.22245882440489    0.00363741396284   14.26685257503099
H       -12.20385725074625   -1.44244849089633   14.50586754814669
H       -11.10029526070901   -1.34760831119639   13.13798149997324
C         4.40611683683372   -1.65074547760619    4.81228235014557
C         5.18151795798401   -2.78868036792032    4.61510283627055
H         5.87617186177875   -3.09545769076803    5.38378656017310
C         5.05809377127123   -3.52878838943581    3.45450684972790
H         5.66509359388276   -4.41270592248349    3.31760346833862
C         4.16865791959299   -3.14916033009721    2.45709296639497
C         3.39430191942042   -2.01308251053788    2.65800263539674
H         2.69771149362907   -1.70208993533312    1.89216278582208
C         3.50698843845258   -1.27368626244304    3.81967177503650
H         2.90581868370629   -0.38690323208244    3.96002959493112
C         4.01023855468519   -3.97316031289019    1.21325586485805
H         3.74237312635041   -3.32949376582877    0.37245248260522
H         4.95162062371386   -4.47250612873635    0.97420767870676
C         2.91538907199333   -5.02997994899221    1.40282083438666
H         3.18497766982048   -5.67758957256426    2.24050589327663
H         1.97854897210181   -4.53061487556080    1.66155581887931
C         2.71625130119107   -5.87418954896708    0.14714355097355
H         3.66078522023052   -6.35715786827974   -0.10917472271603
H         2.43805650787518   -5.22292924839756   -0.68531961026100
C         1.63133624307837   -6.93101433207248    0.34268769740807
H         1.93871853319700   -7.62254120960664    1.13077073315430
H         0.71675498401458   -6.43546939680225    0.67880792960275
C         1.31953996304244   -7.72241133104456   -0.92786782744744
H         0.44343909421207   -8.34812071606385   -0.74072726498397
H         1.06259717036441   -7.02747857587896   -1.73069272848292
C         2.47118327833699   -8.61313760915943   -1.37962016758216
H         3.33250046018004   -8.01994975709622   -1.67549472324548
H         2.16867927140502   -9.21743626591353   -2.23193988318315
H         2.77203751363418   -9.28160531522445   -0.57565469836846

