145
CSD_code = BEXKOG | q = 0 | S = 0 | Stoichiometry = C68H68N4O4Zn | MND = 4
Zn        5.13068791084101    0.00017550257745    0.00114292395019
N         6.41681475762471   -1.42530638401348    0.65771964742361
N         6.56813790938683    1.41201620565417    0.23817739367191
O         3.96380870018246    5.10270137446890    1.11280094843472
O         6.77700749074377    4.43150014656154   -2.53235601554914
C         6.15141456857593   -2.75300099313959    0.80861947014740
C         7.30247649006460   -3.42080751238216    1.34569422319135
H         7.35505744316479   -4.46677682449413    1.57719539994258
C         8.26421932862578   -2.47940005657041    1.50033087413931
H         9.26303296618730   -2.59527178210311    1.87465102623378
C         7.69496598235485   -1.23680901025089    1.06868742102876
C         8.37588435661246   -0.01200713187386    1.09274592814760
C         7.82440962008178    1.21850680942578    0.70969552740776
C         8.52295342669668    2.46770439198599    0.78308394040901
H         9.53145618706268    2.58355739813157    1.13060078785019
C         7.66168762777443    3.41941305702881    0.34941470630933
H         7.82357620084893    4.47743900536767    0.28025355767033
C         6.44282903081310    2.74742102780700    0.00009230898838
C         5.31105687364192    3.38552509538533   -0.49969134209553
C         9.70601159713132   -0.01338305849490    1.54869886985246
C        10.85125826468381   -0.00999918941126    1.94077405743562
C        12.18158314280155    0.00009148002948    2.40006015557133
C        12.78689976233771   -1.17069633149653    2.85826262273052
H        12.22473919282278   -2.09346609481677    2.85551254798074
C        14.09097258608945   -1.15509216210057    3.31396722689648
H        14.52926345823464   -2.07747634203177    3.66163641443670
C        14.82971925353960    0.02154837856448    3.32765464252086
C        14.21966406547964    1.18800870522808    2.86692501376853
H        14.78224032742885    2.11169959222759    2.87072890749849
C        12.92054887617691    1.18711321056864    2.41000426285420
H        12.46337114776231    2.10042018942072    2.05750380484387
C        16.25359082739308    0.10609127445128    3.81054748873307
H        16.30403826949499    0.87469790857817    4.58891030781852
H        16.87527188137366    0.45912360034822    2.98067731400649
C        16.84986733916238   -1.18719554847424    4.35779097056156
H        16.84865011780137   -1.95185854428403    3.57782325590746
H        16.24210318978354   -1.54806554604282    5.19072597197444
C        18.28286732265487   -0.97519708785996    4.84199877244085
H        18.89513597300286   -0.60814188477165    4.01430663698403
H        18.29208048316974   -0.21054095017371    5.62284642185587
C        18.89774674909784   -2.26036779740410    5.39063077738102
H        18.28617415762883   -2.62929703742531    6.21765327016722
H        18.89271556129626   -3.02518988357631    4.61016929032135
C        20.32891395175307   -2.05079539135162    5.87907450285055
H        20.33403285769342   -1.28910417414238    6.66225695240328
H        20.94027237543508   -1.67914572228594    5.05341572823578
C        20.93912556950837   -3.33755503614292    6.42087424967426
H        20.35394910083490   -3.71436898277888    7.25702597995017
H        21.95664725812194   -3.16528913394013    6.76414576184638
H        20.96251838699274   -4.10319758720112    5.64832148850011
C         5.39230716238481    4.85107199371478   -0.70897711042533
C         4.68654317276158    5.71231038305513    0.13790061159354
C         4.77655233472028    7.08796517859217   -0.04834370806946
H         4.24975712060108    7.77270421282215    0.59633241435729
C         5.56234640032252    7.58422367185035   -1.07247729219522
H         5.63146184846200    8.65272650565872   -1.21372195788570
C         6.26165489770995    6.74510774647375   -1.91939279015412
H         6.85607825649712    7.17363806986950   -2.70998464688605
C         6.17888172274567    5.36653387252056   -1.74377988528348
C         3.13943752752093    5.88212678762196    1.95296215969047
H         2.44560302808419    6.48546300396561    1.35067325381483
H         3.75156380166983    6.55913249456238    2.56612962652164
C         2.36446790727622    4.92091447851634    2.84064772697141
H         1.76780090532330    4.25311985491066    2.22521829681032
H         1.71188742795671    5.47462968854953    3.50972466326472
H         3.05590453445017    4.32156481153719    3.42618260052015
C         7.78041453219183    4.81900391170757   -3.44633867394867
H         7.43183418900413    5.63631817988286   -4.09057246041458
H         7.92943618840048    3.93256471160995   -4.06898004373737
C         9.08838685927472    5.19181149506556   -2.75434334849847
H         8.95596542534690    6.06718025948938   -2.12256831794016
H         9.85109669600183    5.40570856172121   -3.49821408601404
H         9.41936972345840    4.36394052992733   -2.13202455837997
N         3.84524524879971    1.42534049193670   -0.65756686226262
N         3.69390723503791   -1.41200342946153   -0.23803727070083
O         6.29829872939477   -5.10271422100594   -1.11281790949566
O         3.48510122953268   -4.43149026900924    2.53233490757356
C         4.11075308296067    2.75298255154807   -0.80879540792277
C         2.95964119522570    3.42081607400844   -1.34571312799129
H         2.90704781063584    4.46678882094783   -1.57717850919339
C         1.99789491701525    2.47940998442552   -1.50035806309699
H         0.99907520516285    2.59528481383351   -1.87465267177455
C         2.56719370886087    1.23679092154951   -1.06886580382098
C         1.88626801779946    0.01198196399969   -1.09294307997547
C         2.43774089311414   -1.21853920135969   -0.70987734993280
C         1.73915082350783   -2.46772007721026   -0.78311348796906
H         0.73064083042397   -2.58356917708306   -1.13060266612720
C         2.60042227990609   -3.41942625952686   -0.34943630236266
H         2.43852202004786   -4.47744517177639   -0.28023788336814
C         3.81933251168670   -2.74745582860919   -0.00026860126529
C         4.95110082536605   -3.38554739095318    0.49953604165938
C         0.55609175484306    0.01337763692578   -1.54879119758122
C        -0.58918644110666    0.00996052222435   -1.94075200503650
C        -1.91949688128951   -0.00009818752958   -2.40004516727266
C        -2.52479958106412    1.17069297931503   -2.85825089038757
H        -1.96263724170524    2.09346237404363   -2.85549383389709
C        -3.82886819021597    1.15509192157981   -3.31396636065776
H        -4.26716607660265    2.07748448225967   -3.66160649867024
C        -4.56761475482759   -0.02154892357860   -3.32766749882394
C        -3.95756221877860   -1.18801352236082   -2.86694829756323
H        -4.52014311516641   -2.11170068474215   -2.87074632637460
C        -2.65845246794803   -1.18712201252171   -2.41001999879742
H        -2.20127250602797   -2.10043416844128   -2.05753284360091
C        -5.99148996402518   -0.10608820149450   -3.81054802776940
H        -6.04193813157553   -0.87469094213977   -4.58891284205887
H        -6.61316938805604   -0.45912529753926   -2.98067787849822
C        -6.58776756312879    1.18719650528875   -4.35779296029547
H        -6.58655241456455    1.95185458289246   -3.57782143511789
H        -5.98000273165932    1.54807153659683   -5.19072566831657
C        -8.02076591789645    0.97519708811936   -4.84200396418923
H        -8.63303434669489    0.60813790132424   -4.01431369654185
H        -8.02997493343905    0.21054284091196   -5.62285337743813
C        -8.63564818029009    2.26036857593052   -5.39063034949700
H        -8.02407477843864    2.62930008018865   -6.21765110627687
H        -8.63061810746149    3.02518845811787   -4.61016663957504
C       -10.06681481710690    2.05079494923856   -5.87907475765792
H       -10.07193116960892    1.28910629510790   -6.66225971347258
H       -10.67817249027648    1.67914130092827   -5.05341721283670
C       -10.67702568083638    3.33755473773292   -6.42087485384342
H       -10.09184951252472    3.71437200544344   -7.25702591345183
H       -11.69454745231032    3.16528829070264   -6.76414544830654
H       -10.70041933695319    4.10319426208364   -5.64831956173327
C         4.86980641608443   -4.85107562446066    0.70894158974687
C         5.57556066256188   -5.71232296785287   -0.13791959992508
C         5.48554266861443   -7.08797266551857    0.04833690148921
H         6.01234146853950   -7.77271558504679   -0.59633064556573
C         4.69975188408515   -7.58422229110527    1.07247820242786
H         4.63063338768067   -8.65272414381622    1.21372940244211
C         4.00044792925011   -6.74509895567577    1.91938902466271
H         3.40601993087362   -7.17362437176991    2.70998233775170
C         4.08322756982403   -5.36652421403536    1.74376050255090
C         7.12267580760065   -5.88213728939562   -1.95296983215660
H         7.81650556752634   -6.48547199607963   -1.35067488832853
H         6.51054912891651   -6.55914007274541   -2.56613959318288
C         7.89763498365903   -4.92091360268422   -2.84065221129270
H         8.49429983359117   -4.25312358638916   -2.22521735894430
H         8.55021544771791   -5.47462555877405   -3.50973019841293
H         7.20619923207321   -4.32156215417859   -3.42618859201004
C         2.48169756927730   -4.81899600663634    3.44632407098656
H         2.83027531232660   -5.63630915267925    4.09056082734727
H         2.33267444489813   -3.93255738777211    4.06896533633797
C         1.17372036781270   -5.19181029521983    2.75434199336073
H         1.30613775427808   -6.06718222493444    2.12257063767870
H         0.41101254511892   -5.40570288393090    3.49821611317644
H         0.84273657981448   -4.36394052856848    2.13202148442099

