39
CSD_code = BEXMOI | q = 0 | S = 0 | Stoichiometry = C12H14Cl2N6NiO2S2 | MND = 6
Ni        8.24366102450501    0.00016844488190    9.61664406597070
N         7.43047337123717    0.99517288715194   10.94851163662637
C         6.42170417970381    1.48329893186758   11.32087511786553
S         5.13062342284273    2.15111333679941   11.94009309400036
N         9.86735771264697    0.98016968968806    9.88811582502378
C        10.36498432025281    1.09541135093141   11.11439801639646
H         9.77968301760669    0.72643762645254   11.94306756392915
C        11.61362148531768    1.68759134896475   11.31859758101150
C        11.82749222941760    2.06952806778435    9.11666909886584
H        12.42549600492583    2.47192341484280    8.31192506044667
C        10.59806345238396    1.47274570141228    8.88305010737883
H        10.21187764484278    1.37589047893514    7.87972929479415
Cl       12.25483236265125    1.80666657365236   12.89761568955280
N        12.33958211471826    2.17243593650896   10.33115275356343
O         7.44466595094630    1.60469522784020    7.93414756930762
H         7.91378792198872    1.57645973920344    7.09195551145866
C         6.99147672182515    2.92649308736172    8.15802340952329
H         6.44643446403780    2.91943697750321    9.09904633219163
H         6.32049785927146    3.24763335056869    7.35611608307696
H         7.82643902309393    3.62957650165292    8.23656916536646
N         9.05661227621904   -0.99520493508692    8.28495599218694
C        10.06362920421515   -1.49036160764643    7.91706563486102
S        11.35283052553348   -2.16710580177480    7.30381044898242
N         6.62044667503952   -0.97949413918393    9.34480808925258
C         6.12094689456315   -1.09095566814618    8.11893069394298
H         6.70445794545657   -0.71840222655045    7.29059305688421
C         4.87252920445967   -1.68356931615958    7.91475453304495
C         4.66275821571220   -2.07357486221553   10.11568413753682
H         4.06647101950114   -2.47938478899285   10.91998788096928
C         5.89195630344233   -1.47635025470536   10.34935161040401
H         6.27984788629001   -1.38271819738119   11.35230654879069
Cl        4.22870711343527   -1.79778355121826    6.33645101164012
N         4.14871282592382   -2.17258927876441    8.90171635379936
O         9.04418621613211   -1.60148636354721   11.30079988437138
H         8.57811262807573   -1.57017443166054   12.14456060623051
C         9.49708116706780   -2.92392585420567   11.08036071669503
H        10.03927703584814   -2.92020804456445   10.13768861926310
H        10.17059594773198   -3.24202687635245   11.88133396968335
H         8.66208663113372   -3.62753247585003   11.00693723510771

