60
CSD_code = BEXMUP | q = 0 | S = 0 | Stoichiometry = C27H24N4O4Pd | MND = 4
O         5.83600047220766    6.36677837679307   12.41783598995598
O         1.51588872808031    0.84086634620946   11.94399589588691
O         2.51065342806586    8.34122207464535    5.82426238228317
O        -1.18806771476968    6.27053875841019    6.62653117160761
C        -0.43751623537253    3.64128566833434    9.76560009040651
C        -1.71899582251882    4.09104830099941    9.46691704016997
C        -1.94369082079941    4.94570879393423    8.40783610810162
C        -0.87978837033869    5.38270015769632    7.61885328194175
C         0.39892082275028    4.91046443490231    7.88806534327266
C         0.61470005386305    4.04660540576789    8.94891861308844
C        -0.12173396003874    6.93607842673148    5.97600563822378
C         0.69362393614647    6.03120060725101    5.09723542722382
C         1.92236987991267    6.22569549035045    4.64238524228353
C         2.84901855366686    7.39514182058663    4.83601138857192
C         0.15955149462221    6.98710209843346   10.58437189148110
C        -0.61977589159515    8.05428571594187   10.03989517155862
N         3.49302952405392    3.74432764392772   12.17512528842954
C         4.64985103068958    4.28974319892665   12.54999462857458
C         5.63516728050519    3.51691367590911   13.15055740749027
C         5.38508233835448    2.16904821416871   13.36785520467397
C         4.16195283064935    1.63029165694580   12.99607489062521
C         3.22077253925570    2.46068924038145   12.40019880855770
C         1.84934774305337    2.02235895103606   11.94081194792210
C         4.77953855812603    5.76596871840921   12.24860887389340
C        -0.18163289147465    2.76059893403362   10.95667228058970
C         3.64342795607818    7.64664161399604   11.33570272336269
C         3.29133331048844    7.76436450630362    9.87381406476111
C         3.43905838348021    6.69603509513987    8.99864585701742
C         3.20428820907354    6.84537470354816    7.63923812734788
C         2.78319875561847    8.06998960865818    7.13559660048196
C         2.59345353977169    9.13566799431899    8.01734640186625
C         2.85324787245603    8.98287416729074    9.36197323792268
Pd        2.14061550644135    4.87325412655012   11.51627478045680
N         1.10808984297494    3.06258125944540   11.54254965458127
N         3.62832093896435    6.27761105664824   11.79262586275976
N         0.78501981370085    6.12105696749326   11.00965643506938
H         3.86919826512380    7.02077397064828    5.00461672708833
H         2.86221552646454    7.97255575846506    3.90228202176563
H         1.22973686057953    5.20150767429734    7.26947460538310
H         1.62207130937779    3.65731319721311    9.11831996894623
H        -0.98128095603917    2.89825646088584   11.69783299242250
H        -0.18222898380708    1.70049088834407   10.65864497132235
H         3.36479766340724    6.00516978239162    6.98079708053814
H         6.13509227414492    1.54570724881476   13.83138385231721
H         3.91225952240695    0.59304196839012   13.15429896148600
H         2.72972902812049    9.82542576235033   10.02765250570548
H        -2.55123485670235    3.77237592223370   10.07732909426923
H         2.35492372574275    5.47562292028484    3.99259772271525
H         0.49656248169251    7.44778681332959    6.72063726361151
H        -0.61367039124640    7.69401090019730    5.35550686706644
H         0.17005496234541    5.12769367667238    4.81228071303677
H         3.77818834373845    5.72882185714705    9.37299560289274
H         2.94959125351840    8.25448081260297   11.93342062403347
H         4.66000021535692    8.04184749645350   11.48809485904368
H         0.03492814713435    8.71494682001786    9.46952366457986
H        -1.38755673212670    7.64644859361614    9.38269311420940
H        -1.09230071334363    8.61816972577373   10.84348433561066
H        -2.93772066746081    5.29648004381315    8.17585632868503
H         2.26028562948510   10.07959469221130    7.61398182623607
H         6.56353645594139    3.98766320373030   13.43315054459597

