49
CSD_code = BEXQIH | q = 0 | S = 0 | Stoichiometry = C17H25ClN4PdS | MND = 4
Pd        4.13324131627712    4.26832814373058   15.24214266606200
S         2.19794044209884    6.92532571897354   12.29718011017294
Cl        4.77974045915101    2.26628354388246   14.32013271899066
N         3.38219461771332    4.99809270214142   13.50236547971815
N         2.87628075201912    6.79917091405616   14.91709366870042
C         4.83429988466610    3.53736136096114   16.83643737903494
C         2.87033691000819    6.20614443143864   13.72037136397751
N         3.49332842370991    6.56212142940813   17.08983735101965
H         3.93956393751546    6.02291072275837   17.81927872563454
C         4.04825938668667    8.76579544399039   18.00597907856626
H         4.79717232292691    8.90672777974141   17.22480433061785
H         4.53729182856669    8.29742626759573   18.86476311182110
C         2.64833880889481    5.50521091698796   11.40328159373816
H         2.43364580571088    5.43604756082556   10.35761250845599
C         3.45299727338321    6.06176685005853   15.85508966956426
N         5.33297218616746    2.82261515869095   17.61012830274195
C         3.25780946003863    4.60586368088796   12.20563510757297
H         3.63719319950640    3.64126855145873   11.90877258867308
C         3.46195717001939   10.11125879424547   18.42406192737491
H         4.25612746250838   10.75764213347085   18.80244497680984
H         3.02019922859178   10.59739008572569   17.55206687590077
C         1.87336772953361    7.64821813637433   18.56671985500630
H         1.08545305608877    6.99782993117954   18.18281130804306
H         2.32285227511972    7.15992161138812   19.43603992639333
C         2.94124467826721    7.84519315877130   17.48934284149340
H         2.49056029862581    8.27395415688710   16.59067273456533
C         1.28953103704642    8.99476072316153   18.98427550734058
H         0.79800994793493    9.45531668423539   18.12519935339806
H         0.53746949930185    8.84555486036033   19.76140126069058
C         2.39094310420411    9.91944201376354   19.49359346017646
H         2.84427311779540    9.48631462303786   20.38844798675307
H         1.96529507532350   10.88571226713757   19.76969568859125
C         5.83113668817889    1.76644861251805   18.38202919226756
H         6.92544604566752    1.78917391809086   18.29712012211134
C         5.42777967811956    1.93871262644044   19.84945907694130
H         4.33785721739563    1.96892737243565   19.91701300103607
H         5.81945201705583    2.88315309890083   20.23384244351371
C         5.96435871757487    0.76950954603538   20.67015657064274
H         7.05632067227483    0.77446639612024   20.63716610043781
H         5.66107668342398    0.88655436139997   21.71191548102792
C         5.29900642126314    0.44141840954937   17.82416863718225
H         4.20764856617378    0.45498977936542   17.86521152419603
H         5.59075137892141    0.34505637676929   16.77726739668649
C         5.44549774401082   -0.55590859447176   20.11959501399259
H         5.85014117305128   -1.38213815824758   20.70629797826392
H         4.35732760691617   -0.58368473946786   20.20873368557746
C         5.83789705703479   -0.71869795454707   18.65350818496515
H         6.92635874326120   -0.75416573074091   18.56874780593426
H         5.44175289426725   -1.65678567740338   18.26298832764315

