38
CSD_code = BEXTII | q = 0 | S = 0 | Stoichiometry = C15H19ClN2Pd | MND = 4
Pd       -1.79677063204205    4.27277225231671    2.47870459295556
Cl        0.34053360862121    5.18533076666019    2.15742773402957
C        -3.96186399309968    2.86530803447459    1.23524268223579
C        -4.49251333884500    3.22746302674079    3.54188429082331
H        -4.25316693353821    3.62381956274547    4.52337595319392
C        -2.97961026093422    3.08808905097889    0.09654501562619
H        -3.24516375666394    4.02785198666837   -0.41230655294190
C        -6.03965607098210    2.05820443444844    2.12937777656242
H        -6.98039431167650    1.54553125933024    1.98971807653785
C        -2.45568568812763    6.44911259069244    4.20518465287673
C        -5.69957302228733    2.56616896942220    3.36918472577294
H        -6.37543411065838    2.45089577119450    4.20523185126273
C        -5.17083111769766    2.20925963194938    1.06171369110167
H        -5.44764685170446    1.81506856275574    0.09450787905599
C        -1.44771412433463    4.65252142344943    5.28373492306517
C        -0.87079157262775    3.28172716992036    5.11701672497547
H        -1.62833145003654    2.60789328183971    4.69114774158788
H        -0.51456238589461    2.88035896245754    6.06211804136085
H        -0.02916243823772    3.34253465807263    4.41180495495476
C        -1.43091622343830    5.34342468342895    6.48705755359438
H        -1.00721426418680    4.88487293733006    7.36641921415991
C        -3.60137819004393    3.39508560250682    2.48642390168708
C        -2.95342779354265    6.97848951175817    2.89670323005067
H        -2.12400219527584    6.96509281974140    2.17341449909980
H        -3.32661649409363    7.99448653746266    2.99330369865500
H        -3.75240005395697    6.32754015898281    2.51623403843917
C        -2.46656477887799    7.18869991143348    5.37910893454914
H        -2.86432546573432    8.19107074791980    5.38157986714665
C        -1.95384491220868    6.62546559911218    6.53657804149984
H        -1.95198512130805    7.18168640341122    7.46135085213912
C        -2.93838802918475    1.95766433209518   -0.93240196166128
H        -2.12231499513980    2.11902604696837   -1.63582525661948
H        -3.86340994525713    1.91393350611862   -1.49948407521269
H        -2.79181014905451    0.99922416928369   -0.43662317398056
N        -1.64522232163182    3.28335908023297    0.70088887444614
H        -1.00189171386810    3.76821533961243    0.06994936824854
H        -1.23160966204725    2.37067899455968    0.92080758689593
N        -1.96973924038223    5.20557222192681    4.18600005182394

