41
CSD_code = BEXTAA | q = 0 | S = 0 | Stoichiometry = C16H21ClN2Pd | MND = 4
Pd        7.33863708255200   -1.49898040266023    4.65329256919942
Cl        7.38499176141362   -1.03277589608998    6.95210511638404
N         8.80335725895854   -2.78973262832067    4.85713108866370
C         8.56265485724152   -4.06610495038897    5.16619183907718
N         5.85209580236427   -0.09887453071666    4.39282242658925
H         5.38532966373433    0.09608315069574    5.28254631609677
H         6.26166081125266    0.77283791519179    4.04818560953124
C         9.59781694404953   -4.93623562937392    5.46410999581542
H         9.38048797231372   -5.96389950073076    5.71140601779424
C        11.12738239645728   -3.14319214755288    5.15233861987912
H        12.12792786614128   -2.73875672333730    5.15165270571689
C        10.91292105492526   -4.48173251914117    5.45707834723899
C        10.05289003412287   -2.31668696904011    4.86137415575894
C         7.03061114263695   -1.77865065472008    2.69232065805397
C        10.21191473152822   -0.85704267604968    4.56772238586510
H         9.73032711558023   -0.61427728143862    3.60882557870405
H        11.25978270263740   -0.56997611466303    4.53279995484613
H         9.70909450996673   -0.28532378658784    5.36198434130195
C        12.04517392654825   -5.40783699127096    5.76241452280013
H        11.81548788037532   -6.01671235768382    6.63428854880897
H        12.96255234960655   -4.85535221462802    5.94653844393609
H        12.21029542849963   -6.08054925001481    4.92073294605630
C         5.78300600999717   -1.26680551624479    2.30028643211540
C         7.82865443298066   -2.34821207335507    1.70640457270438
H         8.79907142284123   -2.76085234876066    1.96217503601825
C         7.12415018164481   -4.47664279064590    5.19016780434841
H         6.59681379190239   -3.85294223569018    5.92589902410721
H         7.01257384788259   -5.52220643626719    5.46439273764563
H         6.68044519440459   -4.30793788179790    4.20137474687788
C         5.35702482774851   -1.32456167172634    0.98357408228814
H         4.39170275228987   -0.92061107607698    0.70758248604292
C         6.17118635319289   -1.90027604302780    0.02266184727867
H         5.84397121505349   -1.94810449438511   -1.00593305689265
C         4.92901253418761   -0.67974500566953    3.40347668714293
H         4.23143319530424    0.07758502551747    3.00977649515582
C         7.40404248007833   -2.41103483544270    0.38654444710155
H         8.04177235466294   -2.86145564265005   -0.36169242345139
C         4.14009852400480   -1.78931595978645    4.10426401626455
H         3.56504539750957   -2.36183042374582    3.38096109742653
H         3.45936879354004   -1.37314538183894    4.84569173808780
H         4.85363339786313   -2.45763304989591    4.60833004162781

