64
CSD_code = BEXVUW | q = 0 | S = 0 | Stoichiometry = C20H39ClN3Rh | MND = 6
Rh        3.36201050048008    3.99895839791873  -14.77458600583220
Cl        3.23663788763606    2.33771684554096  -16.28654439922035
N         3.22504050185626    2.47786591466317  -13.25891639894824
H         3.32994313350711    2.90307676928053  -12.32199452212307
N         2.09632271564396    2.17874343648738  -10.80211756087426
N         5.00750336468776    2.37120542761525  -11.13226046253292
C         1.89713873981193    1.86061171527716  -13.21133708013343
H         1.80520065874107    1.11730337357446  -14.00499216962681
H         1.14896709936843    2.64076645174715  -13.38695876711341
C         1.66242302599595    1.23390505289428  -11.82121502667236
H         0.60322547279247    0.96652140348291  -11.71989944365696
H         2.23309463833116    0.30942389947230  -11.72369914346660
C         2.99622424598360    1.64138396987204   -9.80089762533649
H         2.60567991707689    0.71794430805031   -9.33746300047167
H         3.09020339195729    2.39147359863688   -9.01867367338648
C         4.41073808028675    1.31168733629119  -10.33170646417980
H         5.02378512152072    1.07501594478709   -9.45358337250276
H         4.36489233489030    0.39705252270575  -10.92662708991209
C         5.46827930702537    1.93592243910188  -12.44460805375770
H         6.20880793478105    1.12147436102502  -12.39272677343217
H         5.94326275768170    2.79648756244650  -12.92544545624365
C         4.30459302816847    1.48071050656265  -13.32462084201259
H         4.64494263252349    1.36783685713214  -14.35736472698855
H         3.94047506879762    0.50382471299722  -12.99407744606309
C         1.01048422142346    3.01061848167221  -10.29231767007055
H         0.38512797628623    3.23529698569046  -11.16429627396530
C         0.13262749469388    2.31965407572178   -9.23949782011394
H        -0.22479115036453    1.35850745311552   -9.60327024686627
H        -0.72968130921533    2.94094520651703   -9.01244706922977
H         0.68885632467017    2.15502875903118   -8.31976809318487
C         1.53224680933058    4.34285194165509   -9.75076006942973
H         2.26571051589166    4.76567212520125  -10.43218437607853
H         1.98942413786222    4.22565649914462   -8.77134450552717
H         0.70708320682808    5.04369513555906   -9.65115935965963
C         5.98671824520746    3.21616794084107  -10.45346356304520
H         6.26034474833801    3.98867537073723  -11.18417745622530
C         5.37306560554034    3.92550639093480   -9.24884353966270
H         4.44123535649200    4.40481339304000   -9.53139119266290
H         6.05970481322629    4.68827392779592   -8.88929611035337
H         5.18580448970609    3.23067188813638   -8.43431796978680
C         7.27931133096104    2.49612428834119  -10.03903089456747
H         7.07979704676634    1.71536210958709   -9.30858025052119
H         7.96541745103696    3.21010970907487   -9.59139850722043
H         7.76726153595845    2.04836868279594  -10.90091875507990
C         1.82111119855055    6.51246325863810  -14.22433382194065
H         0.78488944442731    6.16542790880858  -14.24782764978371
H         1.83191168641955    7.46020091803109  -13.67361103913493
C         2.30592403184663    6.73091111524902  -15.66903468013791
H         1.45260744464184    7.00653344153934  -16.29147894208346
H         3.01798103329721    7.55599806411880  -15.71352988010084
C         2.95468652088548    5.48646848118926  -16.23828312355790
H         2.40012705179549    5.00906744983159  -17.04600327003670
C         4.32531246145232    5.24788830025527  -16.17490519915633
H         4.76576495901542    4.61897337243829  -16.94933684270937
C         5.32417339552914    6.14740951247790  -15.48212862084667
H         5.48428703558799    7.04431263392018  -16.09022064419234
H         6.27780141521366    5.61569705703471  -15.43433733160163
C         4.89706900590626    6.53983299454031  -14.05435772710057
H         5.79314119108849    6.69365655622059  -13.44896255986009
H         4.35249888749855    7.48506236444364  -14.06604075589327
C         4.03434081416943    5.47569045512908  -13.40764743595249
H         4.48502291239185    5.00135582351648  -12.53686295212647
C         2.63960211599348    5.48284608470969  -13.47681344378551
H         2.09190698411992    5.02899103570624  -12.65000485225022

