82
CSD_code = BEXWAD | q = 0 | S = 0 | Stoichiometry = C26H51ClN3Rh | MND = 6
Rh        2.65983175271878    4.43613588919313    3.42288582520250
Cl        1.79149643748709    2.95170138680994    1.93655807394448
N         1.99830683937113    6.01121330775812    2.08311228625822
H         2.31441533442941    6.93209728536588    2.42516502414247
N         3.03162277788906    8.31236386767150    0.93066592779291
N         0.81548908614196    8.40166445299491    2.89026993529184
C         7.14654844724490    5.09250667812673    5.70576660214301
H         7.74534299980267    5.07884208178954    6.61496392198686
H         6.80312458916514    6.10894113810123    5.54839012532338
H         7.79294650795337    4.80837717786786    4.88025988852605
C         6.56883663577075    2.70465271877037    5.97838708332899
H         7.34621139366661    2.70681209486889    6.74071562365772
H         7.02032380737141    2.37372091944281    5.04784477526791
H         5.81242713489460    1.98615577934065    6.27503660343617
C         5.25894054508437    4.42114444764460    7.17536679385751
H         4.39822232066952    3.77191841825068    7.31069751603790
H         4.92388868223948    5.45357375634224    7.21378148413321
H         5.94115605754255    4.25615710260950    8.00743287183852
C         5.97537021260298    4.11286464298304    5.85634179802363
C         4.98541833040842    4.22141818547899    4.63943386928575
C         3.89407768708085    3.14199288022523    4.63069906123534
C         2.76935705126701    3.59093910999375    5.34646437157433
C         2.85964742031392    5.03733156670136    5.42795452489831
C         4.02992172296216    5.42206407430161    4.73907352331837
C         4.46528941095902    6.85619610947186    4.63191872636622
H         3.63811700473360    7.47760602170193    4.28978518833476
H         5.28742179898305    6.96859253409733    3.92996613928017
H         4.79000121077789    7.24048207628880    5.60221439253624
C         5.73694035255340    4.21783468549179    3.29805185594078
H         5.01044600003033    4.10694298216137    2.48400731485918
H         6.43511563711392    3.38785559948342    3.23914862457538
H         6.29112198836972    5.14047392667179    3.15091662138987
C         4.11400137371988    1.69846444963895    4.28311431714587
H         4.08829856359363    1.07270021896585    5.17683498134426
H         5.06063279436142    1.55058153660854    3.77396303887095
H         3.31809351093399    1.35755910679536    3.62073684615031
C         1.70470739835005    2.72621608556885    5.94573866020957
H         1.40327285900870    1.95329292159833    5.24085558910185
H         0.82896565302040    3.30832679306027    6.22261359344927
H         2.09051851575858    2.23511805701533    6.84153146242238
C         1.93610329809912    5.91089052631400    6.21673026186817
H         2.14922730534100    5.78774599184236    7.28044905875726
H         0.89318051255221    5.64073201048309    6.05342148018997
H         2.07594135039948    6.95792913216156    5.96022285171920
C         2.61906509892478    5.89081255327741    0.76015061785153
H         2.09549731654212    5.12773388141076    0.18127081634666
H         3.64861130425023    5.55646991652366    0.89895956624644
C         2.60020709350362    7.24586941583474    0.02885304644142
H         3.22276479044602    7.19154621503781   -0.87205736629488
H         1.58581940587273    7.45607571173947   -0.31500447365784
C         4.41085335832112    8.75298690970950    0.68822710788333
H         4.48199869476908    9.25343741637325   -0.29842980428446
C         5.37555977110661    7.56489119475480    0.69577336723033
H         5.27712604440763    7.01988737013179    1.62964680458177
H         6.39655485633869    7.92961147669072    0.60935343150490
H         5.20273361613040    6.88336779655472   -0.13095412403116
C         4.88813791120132    9.73318747244257    1.76556900346540
H         4.45714530752254   10.72408638294426    1.65348483692564
H         5.96757283778142    9.84368301734523    1.70002657405789
H         4.64197406797889    9.34496029206288    2.74997560177609
C         2.08414933278136    9.41604847621321    0.97082099636378
H         1.88573436471954    9.81816216597258   -0.04093046566636
H         2.52907399319377   10.21342215200099    1.55713246829273
C         0.71788544146012    9.08069469710291    1.60640947208692
H         0.17866985498833   10.03261076756195    1.69246674637435
H         0.13478048022317    8.46354652392232    0.92057348444416
C         0.65828772953857    9.24127782879206    4.07459778581483
H         0.83330794260987    8.57306383458153    4.92751127320019
C         1.71809276343718   10.33920623336441    4.13141663115508
H         2.70358315708038    9.92118282946092    3.95000827226635
H         1.71235775957610   10.79762801373827    5.11770478968457
H         1.52089690180469   11.11704378075221    3.39853657705832
C        -0.74036462646732    9.85298713473781    4.25138677479791
H        -0.97847966998643   10.53585017428582    3.43906145214474
H        -0.77764963225205   10.41068088987969    5.18342708897505
H        -1.50118884402200    9.07745018255561    4.28697641377024
C         0.02827885573791    7.17866627004687    2.97419651478056
H        -1.04498638119230    7.34390002812558    2.78458307859169
H         0.13795366091746    6.79507133746534    3.99125137121282
C         0.53365195362266    6.11209322796925    2.00234798146705
H         0.08347397472502    5.14644105683850    2.25169737757085
H         0.22554919968832    6.35523564370819    0.98109039455577

