61
CSD_code = BEXWIM | q = 0 | S = 0 | Stoichiometry = C22H35Cl3Ti | MND = 8
Ti        5.39703942315815    6.29804144074906    4.32507211132135
Cl        7.42601743621723    6.00086566644166    3.64449417938209
Cl        5.60795505098598    5.56914603416257    6.34646898137666
Cl        5.51608386889984    8.41591755649680    4.73998439699314
C         3.43520597317541    6.71405790751337    3.31724874873231
C         3.22938058878287    5.63953722064289    4.23306428561096
C         4.03401918896841    4.54174999543772    3.81240024144247
C         4.72493167310707    4.92864423517386    2.62874486688963
C         4.36498534486392    6.27511156959323    2.32973479961433
C         4.90710610715041    7.07337083991195    1.17486482886284
H         5.43183887591177    6.38349547361240    0.51305039373878
H         5.63899621469911    7.79817140249969    1.55551544356390
C         3.81897093916200    7.83096548450361    0.37478614376275
H         3.61103791565853    8.76773672051831    0.89263526182864
C         2.55760385264332    7.01528955394900    0.33754878771288
H         2.48765730571253    6.32900725918486   -0.49563125995115
C         1.55424134854988    6.99761501590110    1.20559403329775
H         0.74314995847315    6.31407685984724    0.98286853828283
C         1.33875018065208    7.74221678386370    2.50113013181540
H         0.74556772503852    7.06237515328092    3.12681318916639
C         2.64799452594112    7.99016220960393    3.28173865975986
H         3.24246103744082    8.78529147764823    2.83706768889646
H         2.40250654962722    8.29542783612944    4.30145336658719
C         2.27140702092146    5.62001700266465    5.38731151319275
H         1.39906690630758    5.01037339894515    5.14202970284305
H         1.93346725209396    6.62639725503781    5.62839907182858
H         2.74421779694106    5.19664108240990    6.27497499016697
C         4.07089836093196    3.18376634644400    4.44802803713178
H         3.41903592020225    2.49562989537376    3.90513026657378
H         3.73245156953286    3.23521430073391    5.48107316603779
H         5.08361455502680    2.77847247860438    4.44007506764636
C         5.56043341755878    4.03368547972081    1.76074840916572
H         6.53315063551158    4.48047888983859    1.55063706230544
H         5.04707978760355    3.85790913797789    0.81313864649041
H         5.72366763388634    3.07322961849854    2.24454175734439
C         4.30917948644200    8.23940512609108   -1.04192276496462
C         5.57842525934963    9.08944093514815   -0.91262210339960
H         5.82987000821280    9.53022338497713   -1.87494519168424
H         6.42472964376938    8.49058650206759   -0.58744320486851
H         5.43212943226691    9.89785358019914   -0.19945944415549
C         3.21961746064390    9.09579870251435   -1.69815174149455
H         3.50601314158869    9.35821160570795   -2.71415766337960
H         3.06904480506446   10.01799961519341   -1.14142956387966
H         2.27563763479176    8.55664497088069   -1.73795919947833
C         4.60885103965361    7.05153769464270   -1.96101542412634
H         5.00773851271042    7.41950227552630   -2.90388775879336
H         3.71142442948817    6.48067700838601   -2.18333064291793
H         5.34758596577968    6.38100933192738   -1.53018296400438
C         0.46196659772893    9.01464784345418    2.32222479014222
C         0.14835245875999    9.63076722134310    3.68928425522229
H        -0.57924490366737   10.43136153358256    3.57438866130441
H         1.03810451333035   10.05480647905901    4.14655022941806
H        -0.27178825258397    8.88700541054594    4.36326759733096
C        -0.86067053796760    8.60717763265036    1.66121979851906
H        -1.52893862973823    9.46349564012117    1.60236087896279
H        -1.35726183476622    7.82819661797442    2.23575876305144
H        -0.69143676174099    8.24037751645322    0.65234184170732
C         1.13943940830712   10.06360748967891    1.44229869331534
H         0.46935073663178   10.90813025221512    1.29512176102945
H         1.37706968490635    9.64290964644846    0.46998092995297
H         2.04961875970366   10.43903740029751    1.90287395777371

