53
CSD_code = BEXXOT | q = 0 | S = 0 | Stoichiometry = C24H16FeN10Se2 | MND = 6
Fe        5.57653507634244    0.42113112914696    4.43868943077012
Se        3.98332053274549   -2.42463810174914    1.00008491331351
N         4.32903144886469    1.75010381001182    3.84019431328802
N         4.31335633396980    2.60254472870332    2.86343161603367
N         3.15898003860784    3.24531300012093    2.89964725404254
N         4.11312139797898    0.09465883613613    5.78825390519599
N         4.80978910260934   -0.80906930576392    3.25038877739734
C         3.17470619302097    1.81965630721678    4.54845778641680
C         2.37497314194834    2.80213388958735    3.94828970016056
C         1.10851481992522    3.37725709149850    4.12652811917636
H         0.47885645782541    3.04322278053362    4.93331095642257
C         0.69748614831100    4.35509450266694    3.26083085209348
H        -0.27267738465091    4.81015246499555    3.37843397978458
C         1.53396890535299    4.77591780399058    2.20847940876948
H         1.20410822202484    5.54558078472209    1.53106481836618
C         2.76274479930362    4.20970630072429    2.04124755536720
H         3.45907988557110    4.47181186704165    1.26208143806819
C         4.11025324421040   -0.77865815881130    6.78621757185194
H         4.97615372085391   -1.41882213246068    6.84634870001542
C         3.07729357724573   -0.87567960245273    7.70382939744522
H         3.12957509024728   -1.60299960656119    8.49771269871704
C         1.98834750536876   -0.02460540019197    7.58497570921825
H         1.16893646276226   -0.06924202165951    8.28593495161099
C         1.97624754500422    0.88727677369056    6.54696562379447
H         1.15274106352481    1.57015455614983    6.42090037832567
C         3.05306860040753    0.92111863193014    5.66411292293588
C         4.48474523921760   -1.45810005467900    2.33334488248537
Se        7.16760742514298    3.26745378425705    7.87747298037177
N         6.82332378519444   -0.90894324819260    5.03623888242812
N         6.83908258716043   -1.76125233710500    6.01311986702157
N         7.99363171028166   -2.40374828618838    5.97715986421647
N         7.03930636507665    0.74642281049156    3.08806117802946
N         6.34303655621059    1.65190622096960    5.62666092315135
C         7.97788844525397   -0.97814873537534    4.32830453924207
C         8.77767840951311   -1.96052143563397    4.92857263049758
C        10.04421425197125   -2.53552646835196    4.75044619241149
H        10.67386217775585   -2.20153613834448    3.94363504858970
C        10.45521795707214   -3.51341588210064    5.61609974333563
H        11.42534342552869   -3.96854732346977    5.49843817399986
C         9.61872898932350   -3.93424068610077    6.66844074356064
H         9.94853359044448   -4.70401138128699    7.34576410733331
C         8.38994213839881   -3.36802786616045    6.83566077925252
H         7.69356453118912   -3.63021876286330    7.61475881884700
C         7.04228383682801    1.61989059568243    2.09026208729184
H         6.17648660270445    2.26021303504843    2.03027264692561
C         8.07546154380326    1.71721119332647    1.17293908209871
H         8.02320595330852    2.44455630971629    0.37908050283560
C         9.16443714235532    0.86619559335037    1.29189079839814
H         9.98382253219827    0.91077358921884    0.59090120200779
C         9.17657622130440   -0.04559781868763    2.32998593048909
H        10.00010219018341   -0.72843597741538    2.45611538647378
C         8.09957628865120   -0.07966057684333    3.21261008661941
C         6.67172817455076    2.29798891752133    6.54435014350370

