44
CSD_code = BEXXIO | q = 0 | S = 0 | Stoichiometry = C19H18N2RuS4 | MND = 6
Ru        6.14681908990518   -0.39497607405169    2.75665091468297
S         5.38906071829366    0.96408147056663    0.91209736975696
S         7.13443303787967    1.53503695687131    3.62176368718371
S         4.86604270909806   -2.22663364198804    2.08620070110296
S         6.96135385758377   -1.77630685917891    4.56147913737435
N         4.60038677797796    0.11121570240130    3.80644765170479
N         7.88926656956419   -0.97877842770850    1.57897871057421
H         8.49537629325983   -0.18261498275220    1.38557416566215
H         8.42545510289966   -1.67247290889582    2.10178042914361
H         7.60528988350449   -1.38459885125772    0.68769813320924
C         5.58664699802806    2.55779065365993    1.55102335369297
C         5.00921997987212    3.63719160235359    0.86904259962792
H         4.45091494715802    3.42751369299834   -0.03077477777016
C         5.14990884192309    4.92502817822045    1.33116407291126
H         4.69133232674230    5.73941460713425    0.78964190504058
C         5.88167816054525    5.18691311570331    2.48469518819505
H         5.99546249354111    6.19827738758587    2.84327761152189
C         6.47299745101650    4.13986990564582    3.16272541204343
H         7.06473865207278    4.32047811831017    4.04876347642608
C         6.31222197384164    2.83848842187821    2.71302747947082
C         6.09089983722176    1.48093075024674    5.13415979801755
H         6.62152170697262    0.77149995461779    5.77600275060385
H         6.07587984555579    2.46741787594720    5.59663489529130
C         5.80105375322453   -3.05850007981127    4.56865187029199
C         5.78180399291553   -3.94696069800175    5.65168910011065
H         6.49122100346034   -3.78866032542813    6.44985908010099
C         4.88620691922784   -4.99007739740168    5.69695789258561
H         4.88853824177472   -5.65890429990463    6.54509316060519
C         3.98390830740833   -5.19334743679095    4.65830290549508
H         3.28558075604246   -6.01522705854000    4.69254880544106
C         3.99721599948094   -4.33922924721547    3.57381806078712
H         3.32078664799293   -4.48970303594350    2.74461140668864
C         4.88210004576512   -3.27285689064991    3.53700176039343
C         3.29093148736090   -1.31718791103504    2.35579659818646
H         3.17755826783558   -0.73986830814479    1.43348082860264
H         2.47492044252828   -2.03244739301534    2.45450934916545
C         4.71736774606233    0.97922643995011    4.82988328839042
C         3.62781502321497    1.37324356095933    5.58588407264844
H         3.76420741800573    2.08535247124173    6.38451576788105
C         2.38042876734176    0.82740303795334    5.32283816470621
H         1.52046998782760    1.10472405956372    5.91041672328418
C         2.26835937321996   -0.08467898881746    4.28421394858246
H         1.31849181870271   -0.53452466589125    4.04155365983995
C         3.38552674613642   -0.40244248148851    3.53261889071568

