70
CSD_code = BEXXOU | q = 0 | S = 0 | Stoichiometry = C26H39FeP3Si | MND = 5
Fe        5.44297620154248    3.50729849528579    3.79120614499486
P         4.50925316715828    1.58067715666931    3.83218242953537
Si        7.31760922807147    2.45712372574257    4.30047772307870
P         5.03580725625726    4.08589227964467    5.82635608064149
P         4.05270541954560    4.68497776113386    2.62171670160634
C         3.30064636764862    1.13220307390179    5.12815241201153
C         3.58489258430938    0.26440972588564    6.17752580272204
H         4.54878124252558   -0.22307779194885    6.23054368065642
C         5.69710249969561    0.20609858898225    4.02346266961807
C         3.61846099404400    0.94991910833808    2.35306103133039
C         7.92775048740672   -0.43478645570508    4.59886665748149
H         8.93761029295803   -0.16803334792735    4.87425842985818
C         2.05452311317620    1.75412736125530    5.08807579711671
H         1.84453152519641    2.44327425888200    4.28223599249262
C         3.92241505633985    6.47027623702063    3.03244811156118
H         3.24889701019072    6.98202593736922    2.34358691216481
H         4.92136449696468    6.89803534264529    2.96598223709159
H         3.56453387079244    6.59010442607044    4.05336731342016
C         4.25939314826533    1.18484058236616    1.13957541179175
H         5.20476834056530    1.71326767231550    1.14679555515150
C         1.10098137359303    1.49205581985988    6.05355253408678
H         0.13321319627468    1.97155544553932    6.00263670619871
C         7.49576895345351    2.69212472307003    2.38308500723919
H         8.29269209276392    3.38101299566032    2.13183882389717
H         6.55363303598855    3.15301950053165    2.01639556300234
H         7.63886562240229    1.75982042691579    1.84636387517896
C         7.57176244092158   -1.76732364935519    4.47894892947920
H         8.30282101616661   -2.54190545887379    4.66481728647509
C         6.28147605854971   -2.11492976524411    4.10690980428571
H         6.01017573445175   -3.15590347745139    3.99977424878437
C         2.41654254447784    0.25044472322828    2.35213066955330
H         1.90590506405237    0.03919945489112    3.28101271467645
C         7.00043466970767    0.56908202805698    4.36236831901293
C         3.35078480673909    4.55010024859038    6.42457681686319
H         2.74945691173304    3.64851880639893    6.52796826865997
H         2.87285889641527    5.20841199526885    5.70020977871014
H         3.42130000549495    5.05522357592103    7.38830535518712
C         9.01784062147912    2.81239294806069    5.10478878086272
H         9.80662290384880    2.29489454348897    4.57328585376640
H         9.03920774351329    2.49531487760077    6.14003774680413
H         9.23167505687820    3.87275733378187    5.07285942202241
C         5.95465993774204    5.58660803499450    6.33155792887675
H         5.78232350973960    5.82377781219442    7.38208571419398
H         5.64646183470525    6.41768099124713    5.70061459975906
H         7.01035517710878    5.39253982346725    6.15334445259547
C         1.86450609067324   -0.18023822738982    1.15759973024141
H         0.92728354115035   -0.71868264400293    1.16769723427154
C         5.51704792211848    2.99807664171407    7.22693344176466
H         6.59722143918850    2.86523402566726    7.20243547402502
H         5.04016407488610    2.02603688626540    7.11813416731438
H         5.21787577811912    3.44685720956084    8.17465929183911
C         1.38935627514474    0.61712555409388    7.08924843898570
H         0.64731755763495    0.41072097481513    7.84667897237213
C         2.63260314333259    0.01106930599407    7.15021525340863
H         2.86310669016218   -0.66716476891256    7.95953447248727
C         2.50449019056141    0.06948262167176   -0.04409442270861
H         2.06671890484529   -0.26806919426779   -0.97217329118998
C         5.33845277078631   -1.12920846047168    3.87937651249344
H         4.32707205994608   -1.39427603855798    3.59827159245272
C         3.71188479749828    0.74935617521298   -0.05111436822393
H         4.22257877481965    0.93808264572324   -0.98519337398763
C         4.56059386495812    4.86268673728418    0.85964138754911
H         4.45376151342134    3.90725090008313    0.34625001471788
H         5.60562575965250    5.17152018899114    0.83123566587440
H         3.94489904575043    5.61066711397216    0.35867244451125
C         2.26528530025430    4.32797573532725    2.34866534116782
H         1.72565475028031    4.45472490515939    3.28671316832220
H         2.14904627933537    3.30050510040877    2.00382790900768
H         1.85230376059770    5.00807201967701    1.60330992717913
H         6.25340820429963    4.73766669602233    3.71102872165818

