37
CSD_code = BEXZEJ | q = 0 | S = 0 | Stoichiometry = C16H12MoN6O2 | MND = 7
Mo        2.13575628630359    3.21366724778698    2.81683574531568
O         1.32717873757140    3.85632718128879    0.07225211581212
O         1.47505206976854    1.39322953413111    3.15345409623854
N         4.06732961318243    3.65524136978105    2.04926225809465
N         2.22723787681733    5.19294750401589    2.86548179574943
N         0.27879429112026    3.74713611855882    3.65773344818756
N         1.55553705236394    3.36839496868792    1.13345907499871
N         3.41397355889832    3.57346812039065    5.77063485519522
N         2.72969143798303    1.27063419687510    2.69550130625474
H         3.32129312997271    0.98528377189008    3.50338887397682
C         4.96692883260213    2.77846085587041    1.58833305394720
H         4.67447542704923    1.73739560306094    1.64199689548593
C         6.18220674846256    3.14600487131619    1.05295212179084
H         6.86273402246166    2.38995142666289    0.69710915227499
C         6.51172725983000    4.49871240328269    0.97971257277879
H         7.45857287108726    4.81844804853384    0.57404500377797
C         5.58970601205038    5.41660153560489    1.43008778385584
H         5.80182710209023    6.47181481432133    1.37717876774228
C         4.37094706605797    4.97721174970890    1.95803800435780
C         3.32692729626462    5.86182366087738    2.42503768473011
C         3.38343820642925    7.25404003519303    2.42495861194896
H         4.26374386689628    7.76281264388454    2.06942041740586
C         2.30003981079819    7.98044406360637    2.88701982346568
H         2.32451726382226    9.05816783754505    2.89328865251162
C         1.18113143622552    7.29968625397762    3.34583920542280
H         0.32949569906351    7.84851778470914    3.71110788481706
C         1.17103493619228    5.90895494211555    3.33128762451149
C         0.07295015100735    5.07877833091969    3.79078248594809
C        -1.11296851369951    5.58221899292441    4.33329551244206
H        -1.25256754099165    6.64618884429150    4.43143781567305
C        -2.09958035215697    4.71146446912549    4.74515497443666
H        -3.02042906868100    5.08237659169886    5.16735338328506
C        -1.87615152635504    3.34485071940260    4.60455520214339
H        -2.61777559672799    2.62610103837515    4.91252410646171
C        -0.68284281792813    2.91401752718483    4.06221425677713
H        -0.46963770302795    1.85820549073745    3.93736111606215
C         2.94910505719724    3.37521945166475    4.73410431611955

