35
CSD_code = BEYFEQ | q = 0 | S = 0 | Stoichiometry = C9H18NO4P2V | MND = 6
V        -0.27446782306009    3.82903606921741    9.76296223713190
P         1.10074892552956    2.70925599341455    8.13570859378782
P        -2.33929960598866    3.01356183440456    8.94331892158312
C        -0.40480546854951    5.40342506590334    8.80799251362310
O        -0.49652924160598    6.51855457712410    8.54543426256127
C        -0.14316961416270    2.49741630507777   11.03329808454190
O        -0.08337378124681    1.95281322055304   12.04374516772341
C         1.21252330324410    4.52809300099019   10.51432572854391
O         1.97675640150490    5.08716475644008   11.17166230289869
N        -0.93603661750658    4.68402981092275   10.96426202992634
O        -1.29965765794490    5.34283955911468   11.87437765800295
C         2.24345923562277    3.88422698941737    7.31099219253923
C         2.32370875925714    1.60290138872292    8.94020402881977
C         0.65703642832628    1.66198745220521    6.68246736198368
C        -2.95691488116355    3.41207718437353    7.25605771485741
C        -2.76974037443037    1.22629944101383    9.02333701873289
C        -3.70877180460796    3.70390440660141    9.94236231771265
H         2.99212251723394    3.35446203109894    6.71934678007624
H         2.73312295078185    4.48522869617902    8.07727235887907
H         1.66928370935901    4.54830552083011    6.66465709662357
H         2.80677921084531    2.15414343287621    9.74715175392213
H         1.80491300305176    0.74522775345073    9.36873417870546
H         3.07283767523185    1.25824948933071    8.22527945514946
H         0.06131701740765    2.24957681532905    5.98462817840435
H         0.06907830002816    0.80731656101404    7.01525516939165
H         1.55598863388368    1.30640251165359    6.17778069939801
H        -2.88902656241969    4.48993149474250    7.10870192464579
H        -2.33488966522249    2.91778595276125    6.51089766209592
H        -3.99229798196951    3.09033102531468    7.13529962736812
H        -2.12268014051843    0.66197569742454    8.35270910089598
H        -2.60380740365724    0.87714609788724   10.04248760600159
H        -3.81175973354319    1.06321466816903    8.74468881668848
H        -3.55782361933185    3.42020091047346   10.98449388988631
H        -3.67606798797109    4.79189534401693    9.87494071907973
H        -4.67715610638759    3.33891894198262    9.59436684780499

