79
CSD_code = BEYKUL | q = 0 | S = 0 | Stoichiometry = C40H36O2Ti | MND = 12
Ti        4.03525168189759    3.87312872664753    9.27376763494535
O         4.55668530112968    4.95917350909029    7.97863225080223
O         4.08429163170079    2.36003277802074    8.35900154918761
C         2.27003754344570    4.33694948099411   10.78033038002008
C         2.23777075893631    5.27285548098435    9.71452197334061
H         2.32898367329604    6.34863377572083    9.81753845346724
C         1.81031687620937    4.59116875988421    8.54849453585853
H         1.55206222901140    5.04516414299958    7.60063842104906
C         1.62115283963808    3.23877244450905    8.87892081666684
C         1.14346441889177    2.13140700098822    7.98827077716202
H         1.96747324179572    1.79990337247823    7.34300580669714
H         0.34323644846486    2.49300291146176    7.33527404369356
C         0.65525422888390    0.95218580160375    8.83312291786920
H         0.50702986858032    0.07882095717413    8.19487470772628
H        -0.30590541415601    1.20319214926570    9.28910489353828
C         1.66261264146673    0.63390999429187    9.93695580321864
H         1.39720735484122   -0.30420326420546   10.43002399258732
H         2.65644430074721    0.52502610238430    9.49232995294960
C         1.69743761915662    1.76934709136454   10.96098350706126
H         2.46162881079037    1.56823900372024   11.71766192969841
H         0.73102673564643    1.81857330705474   11.47995227845398
C         1.94204989429581    3.06860509209903   10.24672933634020
C         2.54418711122200    4.68576174075657   12.21634154991811
H         1.77911509742037    5.37297692023076   12.59250154519362
H         2.50570854868131    3.78210406307078   12.82894238245721
C         4.85978575437135    4.62715067839881   11.36822813881717
C         4.99479791799446    3.21572226867659   11.28286750720298
H         4.57463700096493    2.49741531500757   11.97573060890723
C         5.98492204627443    2.92839685592770   10.31660000165847
H         6.42381409100532    1.95807185953491   10.12478112566126
C         6.43403203824164    4.15039203759822    9.77630527132953
C         7.56629994948272    4.37559069518330    8.81882734737509
H         7.49206032352240    3.70409960561840    7.95708294366125
H         8.50964464923166    4.14600020997707    9.33132626061395
C         7.58241563883318    5.83381202150448    8.35611344178782
H         6.75339064583934    5.99883238364052    7.66454146125132
H         8.51456359076908    6.04081155444322    7.82600720728323
C         7.43375069457012    6.77482175045585    9.55080041065601
H         8.18221943846196    6.51886385716893   10.30500371403174
H         7.60721917309875    7.80702347777750    9.23899654252124
C         6.03542547649032    6.64932400195126   10.16201099076965
H         5.30251077619581    7.07008817413514    9.46215940626850
H         5.98083324599288    7.22310075333210   11.09258652666697
C         5.73387547378632    5.19959689464215   10.42277954049343
C         3.93648529937141    5.33483457935876   12.31903168032192
H         4.31130544795449    5.26692352060582   13.34641317320200
H         3.87477130852720    6.39376354742319   12.05531937165125
C         4.44030387416133    3.80579137229258    5.90629378643089
C         4.15464424923641    4.90143944347117    6.72104898373375
C         3.47798595641812    6.02291356424745    6.17039241170711
H         3.34982804867832    6.88793003711585    6.80879516826951
C         3.01731761792881    6.01049255346350    4.88958972512084
H         2.51394875996624    6.87441507819095    4.47899587598523
C         3.16725560969936    4.86142624427678    4.08352700589099
C         2.62934097898414    4.79978432569607    2.78296515970912
H         2.10003163000617    5.66262416643217    2.40334590550855
C         2.76112444154098    3.67316797996102    2.02062999869289
H         2.34451001584405    3.63222940942936    1.02494765393583
C         3.42885051976632    2.55516602808655    2.54041737750244
H         3.50664148501973    1.65873784640224    1.94255911732290
C         3.97465252308511    2.58962409984514    3.79326328747917
H         4.47370307275669    1.71702058886462    4.18651644623600
C         3.88074516983288    3.74641979102777    4.59893838038443
C         5.33742809542062    2.72744297903068    6.37127156578173
C         5.06207219611057    2.01161657409235    7.53751735512549
C         5.80122408002605    0.83180391534911    7.81930707400811
H         5.48678888204299    0.23787712409053    8.66820498785289
C         6.85054935325640    0.45103067132031    7.03985715468984
H         7.39687195994853   -0.45523628419589    7.25949098921908
C         7.25665861503415    1.24450561321001    5.94573635187642
C         8.39412266364243    0.91906726506668    5.18080764790686
H         8.95563915149957    0.03377979288172    5.44460924272376
C         8.78867855749011    1.70898621372335    4.13777853209483
H         9.66342982154038    1.45515966542630    3.55732810006713
C         8.06179428104920    2.86733471453359    3.82753218916017
H         8.39481205876801    3.50147165224958    3.01889249266544
C         6.94416470570918    3.20070568577429    4.54040843909741
H         6.40223758350468    4.10293782176463    4.30147069046505
C         6.49276061906225    2.39396668192693    5.60892679132117

