49
CSD_code = BEYLUN | q = 1 | S = 0 | Stoichiometry = C24H18ClN4NiO(1+) | MND = 6
Ni        3.69214439561987    5.65658084790543    3.44236067987388
Cl        4.39070311309529    4.50155950958174    1.78850198817344
N         2.41053273292840    4.35376433438825    3.62303843419247
N         2.07307102939199    6.70696131641859    2.30988623003946
N         3.21187064880826    6.54911459099545    5.13921393571840
N         4.95949526198121    7.00845255089249    3.17669015042367
O         5.56248494702006    4.67322883982768    4.59594684576477
H         5.93779918779949    4.22086022342799    3.82659469082157
H         5.71963191948252    4.11742991000927    5.36375387974530
C         2.57224034270614    3.22935981464197    4.29246673767722
H         3.49201793795245    3.11823920694941    4.85144732622844
C         1.62588786120719    2.20394064074150    4.28537296118350
H         1.81373696850519    1.30431094241054    4.84865280169678
C         0.48124365352066    2.35335714480511    3.54029570779192
H        -0.26073535908685    1.57106641495431    3.49192320828778
C         0.28458076178328    3.54333033217772    2.82130233100770
C        -0.86331918955172    3.76911230550548    2.00790953944419
H        -1.60996364465168    2.99135123639628    1.96010480332353
C        -1.00770140721088    4.91607884156630    1.30234558653296
H        -1.87098010218474    5.07479806129266    0.67416613329822
C        -0.02491068272728    5.94472615800866    1.36759940846360
C        -0.12951773624966    7.15011799354949    0.65274068235212
H        -0.98410484638276    7.32001273745890    0.01507966774519
C         0.86393052303918    8.08989542260559    0.77970759972707
H         0.82087966221592    9.02415161279575    0.24351486453779
C         1.94338409659868    7.82454249139333    1.62877138702471
H         2.72745591642121    8.56024709154922    1.75697095515973
C         1.11572374612295    5.76683241686849    2.17968593771045
C         1.28554707606752    4.53778838466961    2.90246082901260
C         2.34339780505738    6.29948625021945    6.09810244535556
H         1.75198517645177    5.39738570828723    6.01135509568726
C         2.16462752763828    7.13924554076880    7.20090927713059
H         1.43903898444993    6.87753579402724    7.95416180724432
C         2.91823326790591    8.28352053128669    7.30805646572099
H         2.80478948400023    8.95226933073822    8.14780541102364
C         3.85195916316075    8.57744966563954    6.30119114012626
C         4.68401942207526    9.73390348068134    6.31293659551999
H         4.58878827359706   10.42088393458981    7.13978016102241
C         5.57228439155643    9.96513624058264    5.31588497274003
H         6.20209005512423   10.84147698663712    5.32985422042513
C         5.70625111556374    9.06244133079954    4.22087765860460
C         6.61540563812000    9.25659551259696    3.16743872852047
H         7.25782179332248   10.12413765334548    3.16593139924390
C         6.66634166386732    8.32628597254729    2.15859134490572
H         7.35197902434204    8.43426200071360    1.33373349295565
C         5.82020469346786    7.21360326355479    2.19939428352173
H         5.85606709865982    6.46995247911629    1.41349351095412
C         4.89383491737122    7.90912177843897    4.17764051772519
C         3.95935169004678    7.66569517163948    5.22875616861208

