63
CSD_code = BEYMUP | q = 1 | S = 0 | Stoichiometry = C26H34AuNP(1+) | MND = 2
Au        0.60124108742324    4.65426886737616    7.28941926833807
P        -0.93158104799811    5.20080083577862    8.87612184522094
N         2.04384447035911    4.15351614921121    5.71437980781083
H         2.98856248196918    4.38062997131810    6.01478768043103
H         1.96994335168928    3.14017855540142    5.61363537217052
C         1.75184653825846    4.81257702655749    4.46662631241338
C         0.75447048498807    4.31160946672608    3.64345079862224
H         0.22679467079032    3.41389244720506    3.93079167520938
C         0.44592020810834    4.96409522936753    2.46331810019316
H        -0.32559512421335    4.56862535928038    1.82135360045668
C         1.12730183299577    6.11571552326348    2.10525517049970
H         0.88757857335096    6.62015224712196    1.18291159691711
C         2.11974905125100    6.61483279460109    2.93105211893074
H         2.65700072914638    7.50869080896130    2.65576179666633
C         2.43510876315991    5.96495138940114    4.11217875952887
H         3.21248372876323    6.35105682160828    4.75584554390878
C        -1.82499972496235    3.78024296571926    9.58550841680331
C        -2.82485147576381    4.00407199744409   10.53555579147199
H        -3.07067488095094    5.01199947757227   10.82555044095055
C        -3.51605024934176    2.95729360752991   11.11230741154016
H        -4.28276555459104    3.15865425258036   11.84439842201908
C        -3.22118676567344    1.65430537880082   10.74674687373986
H        -3.75108347789568    0.82820197626234   11.19413671185076
C        -2.24854043251379    1.41855046868993    9.79490411555903
H        -2.02082731735738    0.40673091261972    9.49313028661586
C        -1.54373348594701    2.46380652747683    9.20158056721957
C        -0.55902697013111    2.06438320927451    8.16919579685918
C        -0.99302012729176    1.82714259170590    6.86621455248514
H        -2.02451094451182    2.01876494610820    6.60864440409090
C        -0.12137072405476    1.31991216075518    5.91920923294255
H        -0.47498897424680    1.11596760634800    4.91935514624717
C         1.19354142951363    1.04120483033702    6.26136145067938
H         1.86493759655511    0.61704534510476    5.52859150373542
C         1.62994024237638    1.26300806409608    7.55906723639082
H         2.64534786932419    1.02303814142170    7.83672900264293
C         0.75906362211278    1.76728418100816    8.50978834392544
H         1.09086304007435    1.90731908366321    9.52777696739976
C        -2.24377656821253    6.29458987104842    8.06493376530973
C        -3.12269009068759    5.31148383625339    7.28746575783605
H        -2.50333564052875    4.64572489887435    6.68278762071115
H        -3.78701086585427    5.85504460110168    6.61911441780584
H        -3.73249847325795    4.70732156240509    7.95656604770578
C        -1.52653943193865    7.20999513795691    7.06893170486236
H        -0.85537721632526    7.90388116206371    7.56786750562185
H        -2.26307335614234    7.79396177618783    6.52060524569367
H        -0.95165237584746    6.63160880498209    6.34448625188807
C        -3.09352427792715    7.15520802597300    8.99483181080671
H        -3.67126916400510    6.56073263389206    9.69608109811250
H        -3.80309896252179    7.71979114530786    8.39159375245352
H        -2.48506886887666    7.87194556540557    9.54104290234713
C        -0.01951840605761    5.97618049448802   10.33219289209496
C         0.65422867789129    7.25356803861792    9.83381244520021
H         1.16060275583739    7.08202870149672    8.88247608349866
H         1.39777113709382    7.58293840303094   10.55705405195287
H        -0.06673318919071    8.05827065673560    9.71002515891561
C        -0.84967638425790    6.27173018662026   11.57837698185480
H        -1.69247318905010    6.92431208820543   11.37090805254677
H        -0.21302357498798    6.77795429912900   12.30257405177985
H        -1.20788443716853    5.35533730898588   12.04068087159659
C         1.04488085253791    4.93465697934114   10.69140883403107
H         0.57949765822437    3.99475909571725   10.98740461636627
H         1.64519984149296    5.29141908887389   11.52556090568997
H         1.71031105509842    4.74493441957329    9.84817505053997

