39
CSD_code = BEYREE | q = 0 | S = 0 | Stoichiometry = C9H12N5O12Y | MND = 9
Y         5.26845965412385   11.71702094363587    8.05544708331495
O         5.77483368805222   13.77260978221977    7.16929966857469
O         2.86582386356187   11.14798928859897    7.45992312216407
O         5.06843983764118   11.51579464799959    5.91946010774898
O         6.51068841631701   12.81225774053009    9.47036198530540
O         4.24457928319096   11.43771614910458    9.97509282437785
O         6.45423728163149   10.22259923823886    9.44071365297207
O         3.85608090711457   13.23238389421110    8.92401953848920
O         4.03257535090468   13.25642291704514   11.03671796640241
O         6.83786589612834   11.48361190998220    4.74716584462024
N         4.04174080924089   12.65770546881820    9.99232448903874
N         6.30604137514901   11.45360385967012    5.81052015336258
O         6.95487404096574   11.33253371745349    6.86325714893747
O         5.02533420931663    9.58987655150305    8.00439508965445
N         6.66177481561888   14.23595767673017   11.25498472309738
C         5.94333046217608   14.89947885618571    7.67691487480408
C         6.28380752462379   15.10799205863376    9.04233431499049
H         6.32370567009004   16.10966378747869    9.43387916528070
O         5.59887289115584    8.28830967026945    9.58464004514896
N         5.69112584864548    9.34073238469506    9.02789991969717
C         6.53306103530053   13.28060426756655   12.20239705434271
C         6.48216106273657   14.01435352654241    9.85931566577958
C         5.75547829837747   16.12943560165352    6.82633395251124
H         6.58413715084625   16.81962550832731    6.96060062260023
H         4.83715443244404   16.62945601699015    7.12810583685025
H         5.67413106981124   15.84156567802035    5.78222233136533
N         6.63971933797180   11.97900558055867   11.87770729491851
C         6.47865515596008   10.98656321101416   12.76100487974322
H         6.53961066714861    9.98609351738734   12.35973058331020
C         6.31601219368147   13.60668848092224   13.55561637826793
H         6.23470956258112   14.64295754628533   13.84086736595831
C         6.25064406539874   11.26072107775228   14.08276628125214
H         6.12325578945485   10.46465248050049   14.79613181912324
C         6.17549072757758   12.60296995741003   14.48008185601007
H         5.99259436229026   12.84645217072806   15.51531974446765
H         2.72731630037234   11.49741510489693    6.56772875318819
H         2.84718658201549   10.18250013294086    7.37612029130365
H         6.74756912274540   11.76221892199455   10.86832753538208
H         6.53272125764261   15.19046067549373   11.56177003567120

