83
CSD_code = BEYTOP | q = 0 | S = 0 | Stoichiometry = C34H42Cl2N2O2Zn | MND = 4
Zn        4.67479334740247    3.12303853707497    9.46406358951768
Cl        5.91552731127312    2.63993570158734    7.70461073428790
Cl        4.98442794923389    4.28510471505760   11.31465177460780
O         3.98348687088391    1.27651217989635    9.77797028488522
O         2.88942639560902    3.89055361764045    9.00427255292680
N         3.90575570281390   -0.32011254664741    7.71265808063377
H         4.36321442975806    0.42585142798921    8.26375277272655
N         1.47206891808709    4.84307660500026   10.98047984296459
H         2.38002635314603    4.68685407650786   10.51072610987781
C         2.14664653729264   -0.14189729125133    9.31824991371454
C         2.81530366453371    0.86667574961449   10.09744850174044
C         2.13181696072431    1.36966348280173   11.23371435767718
H         2.64167441590572    2.11939182884610   11.82065743289235
C         0.88337987159784    0.92833026797536   11.56650487529419
H         0.38523725520738    1.33024012040472   12.43780085412467
C         0.23215177188920   -0.04899038214294   10.79795069031479
H        -0.75444684549860   -0.38344343150087   11.07874185368285
C         0.85884733499667   -0.57202155409361    9.70340273289957
H         0.37204892427384   -1.32887376152343    9.10415360478097
C         2.74552084527478   -0.68516847307794    8.16358329993132
H         2.19611061225818   -1.45119205050875    7.62604760325915
C         4.62326516156966   -0.76530555134016    6.53450736959941
C         4.49618948758269    0.31708737131193    5.45236326004748
H         4.87115669749565    1.26081737979442    5.85137752312492
H         3.44542058796071    0.43791276291972    5.17623751791144
C         5.32099743611852   -0.09340674885759    4.23383907755856
H         5.22078456785221    0.67688279160100    3.46262558014421
C         6.78780062601535   -0.22168842413393    4.63929270535816
H         7.14273950603951    0.73187842398512    5.03197366910038
H         7.39415879734354   -0.48261090381219    3.76973882644710
C         6.92149318578644   -1.29916216088438    5.71336062388614
H         7.97143568326264   -1.39534342689753    6.00660101637023
C         6.41475792850957   -2.63728848327029    5.17737476963634
H         7.00577527381854   -2.94043404942279    4.31104986809283
H         6.52094122469464   -3.41073918943922    5.94160218714781
C         4.94777498247784   -2.49800038741792    4.77558523988287
H         4.58046797709048   -3.45681160413526    4.39229846713861
C         4.10662566673037   -2.09644495614055    5.99061252400790
H         3.06289127077522   -2.00433705333269    5.68015711952810
H         4.17287163984113   -2.86662025242785    6.76335602742324
C         6.09744495495107   -0.89483365840355    6.93360952050482
H         6.19995790890825   -1.64225026811514    7.72389660055901
H         6.44500635243313    0.06734115666992    7.31309343056218
C         4.81491847246072   -1.42938686990630    3.69136062823662
H         5.39743230983240   -1.71934794245916    2.81494835728471
H         3.77074251367878   -1.33788434768047    3.38220796797309
C         0.56610195087356    3.50210135936185    9.22385353110183
C         1.82983460901747    3.33294872624364    8.55620165295559
C         1.84274237072641    2.54004106785040    7.38044544094539
H         2.79147828311826    2.42538388686326    6.87718116521281
C         0.70738509476910    1.94501760569739    6.91042308629017
H         0.74654955704703    1.34473408219724    6.01209834548761
C        -0.52040671959025    2.10422589595474    7.57171583705311
H        -1.40528709941258    1.62417289611489    7.18357289831431
C        -0.58253678035255    2.87225539711372    8.69890394545541
H        -1.52174706240912    3.00827449096129    9.21681873783244
C         0.46348260544925    4.26546267420422   10.40444537719465
H        -0.52003128287654    4.36910981392424   10.85111133995385
C         1.51652159045946    5.63149575360083   12.19599172602059
C         2.11154838346001    4.76458496158142   13.31549554294751
H         3.09331484986923    4.40721604278019   13.00098801464506
H         1.46088021047967    3.90567927801733   13.49969193065381
C         2.24885056854460    5.60738451844316   14.58231954853843
H         2.66525444951910    4.98335346009364   15.37945676212558
C         3.18891234789653    6.77925687152583   14.30777679335783
H         4.16392630001206    6.40061472367960   13.99904966963484
H         3.32180237415840    7.37193374060883   15.21501201130110
C         2.60169762053728    7.64702440604724   13.19661762018518
H         3.27204289539969    8.48861076304724   12.99656361432770
C         1.22943245502659    8.17326453349983   13.61443813091557
H         0.81401547006596    8.80305873221273   12.82435509868106
H         1.32177585323682    8.78407739731821   14.51447403701296
C         0.29741331749928    6.99428981832922   13.88662623752310
H        -0.68863456202746    7.36825650259765   14.18509386430115
C         0.14196626699504    6.14554262045214   12.62158025503670
H        -0.52877470655675    5.31070136411139   12.83918781185725
H        -0.29731840836724    6.74476477332864   11.81986989697939
C         2.46051270878654    6.80901304011156   11.92800219927345
H         2.06452683479856    7.41980145151335   11.11316980727489
H         3.43513887248072    6.41791654514457   11.63184209431247
C         0.87812028854541    6.13268916756872   15.00714161606855
H         0.97379017047905    6.72745942242949   15.91746839888603
H         0.20664947837540    5.29812978875007   15.22330462257843

