63
CSD_code = BEZCAK | q = 0 | S = 0 | Stoichiometry = C26H28N6NiS2 | MND = 6
Ni        4.83311555325801    1.84332398695285   19.99845910332830
N         4.91257592327668    1.99690490063921   18.18735882227093
N         4.79621610431932    1.66754431578210   21.80991427425623
N         4.04939535274465   -0.31645424589929   19.77131784513277
N         6.69043486250755    1.12044065992904   19.99201000964050
N         5.72448612086442    3.96012982189788   20.22266976192783
N         2.99545773349661    2.56102133802513   20.00703785285018
S         3.74695694154283    2.55976332017511   15.74905320128674
S         3.60090116058462    2.18706594596162   24.24389436640037
C         4.37333969446939    2.24805480364588   17.17259185724448
C         4.25192780051709    1.91239185910041   22.82364252322056
C         3.21468311804600   -0.66868307993921   18.79818655182844
C         2.67688101526773   -1.93821059338089   18.67408721435065
C         3.01069384115320   -2.91652822181950   19.60258281754235
C         3.88456528029098   -2.54531946422897   20.61984446512304
C         4.37126526506982   -1.25179434170993   20.66182995019155
C         2.44983987956895   -4.29969943217064   19.52913300806695
C         7.07758658942081    0.21432144348955   19.09606761927654
C         8.35602759091861   -0.30974051052850   19.05677018130488
C         9.30719432057708    0.11347334959845   19.97953058548520
C         8.89345065141064    1.06043041380197   20.90841945573384
C         7.59207397192497    1.52918776403292   20.88130758912812
C        10.70413741737420   -0.41348709874427   19.95437338510697
C         6.55625727767619    4.44064597643013   19.30313950072719
C         7.02100385571967    5.74457154380776   19.29842025889564
C         6.61508516494142    6.61929244840192   20.29852410864647
C         5.74854577284571    6.11277806116061   21.26248852271311
C         5.33678190143132    4.79528105097692   21.18393647820497
C         7.08210048252406    8.03788157360463   20.34993769183441
C         2.69673389333450    3.71401476510639   19.41181426468670
C         1.42903958827782    4.26471973824954   19.42142686087638
C         0.39265075285784    3.60569171151678   20.07161335331286
C         0.71229723524662    2.39936948066031   20.68491719186413
C         2.00724463476384    1.92134993839860   20.63066035517338
C        -0.98764946978247    4.17061748348018   20.12979829542053
H         2.96816066415255    0.09977200739743   18.07701390925898
H         2.00563237103870   -2.16106316784286   17.85845427177979
H         4.18173193837548   -3.26007223399665   21.37259946884549
H         5.04553788367615   -0.94429279247981   21.45090346322075
H         2.00754195355379   -4.49047104199563   18.55467249360892
H         1.67714488447951   -4.42492866635082   20.28791773717007
H         3.22524210021828   -5.03878664583352   19.72078150101310
H         6.33992626292491   -0.10311317327074   18.37196621965707
H         8.61079676626004   -1.04422599827858   18.30784812428031
H         9.57899436255566    1.43163690905141   21.65506263892837
H         7.26385340574692    2.25571747856294   21.61186515002606
H        11.21674496947242   -0.20700708036181   20.89020994502830
H        11.26079952899012    0.06143146868895   19.14626343251220
H        10.70717396280225   -1.48612554418538   19.77302386536799
H         6.85740240652098    3.74962618644489   18.52617364209309
H         7.69242548468017    6.07430233125550   18.51981900705564
H         5.39928532367396    6.74101638843964   22.06800789584694
H         4.66806917622880    4.38801536403534   21.93109563979871
H         7.73905010908624    8.26419146023268   19.51414683850804
H         7.61933247520529    8.22240695757733   21.27943013300832
H         6.23020833651263    8.71586793440831   20.32124083526839
H         3.49696859072770    4.22394794616038   18.89405230464138
H         1.25348117909208    5.20296073812327   18.91770264061730
H        -0.04285093513131    1.83281540734616   21.20796029124862
H         2.25424293266598    0.98767544877229   21.11617951074467
H        -1.16066176455699    4.86157926281591   19.30867431707692
H        -1.11921502253234    4.71367572260480   21.06615460996775
H        -1.73151662485555    3.37799662627872   20.09662079039144

