35
CSD_code = BEZDIV | q = 0 | S = 0 | Stoichiometry = C14H12N2NiO6 | MND = 6
C         3.74317969387409   17.78851079459388    4.33290705067598
C         3.48442144882179   18.76363592434230    3.38147706924219
H         4.23208940981716   19.51535555304601    3.18310705242454
C         2.26611860547927   18.73343477067991    2.71514446499908
H         2.03823354562777   19.48179906765662    1.97015947812854
C         1.34048280788081   17.74084301570067    3.00998743920182
H         0.38256932645712   17.68037317399320    2.51796868691043
C         1.66488014234471   16.79825980917211    3.97389786735892
C         4.99823127910597   17.58294869970810    5.18661573898641
C         0.82905875813021   15.62502860849430    4.49439002557734
C         4.11844151790925   13.10344175510098    6.79282165756580
C         4.40852834145782   12.11265792356788    7.72156035217004
H         4.81736333965595   11.17121898268400    7.39068120898568
C         4.16448354841493   12.35259070396209    9.06229709635278
H         4.38095077203768   11.60011719782664    9.80507352049851
C         3.63892881005320   13.57855439195751    9.43070697489945
H         3.43464473633751   13.80780490440568   10.46446861556109
C         3.37367859771987   14.52412362430960    8.44883364900309
C         4.34740806765874   12.85667550475369    5.31793294113393
H         5.19363831865882   12.16940747116809    5.18530591055229
H         3.44460627823175   12.38598906706712    4.90901456907389
C         2.82324697521289   15.88181181918273    8.82622235094574
H         2.20201065746989   15.79109978778143    9.72753207653999
H         3.67136122778021   16.54162927939771    9.04884054650724
N         2.83897751479274   16.84892557111961    4.59804700985271
N         3.61115799048050   14.28370697637782    7.15717039459703
O         4.88327812895260   16.56303532399001    5.95970952138839
O         5.96765056521269   18.30462270998166    5.09544559129097
O         1.45186165593438   14.96789508719605    5.40616834135260
O        -0.28743312915989   15.39390490923479    4.08386928521981
O         4.53006214913837   14.02998791435856    4.56505035339581
O         2.11601573593560   16.51825875938101    7.79077326379058
Ni        3.21087110725606   15.62313566738816    5.82475980957457
H         5.37018880998522   14.44661996673765    4.81399775631322
H         1.29411326533510   16.03299528368265    7.61596232992966

