135
CSD_code = BEZFOE | q = 0 | S = 0 | Stoichiometry = C56H76P2Pt | MND = 4
Pt        8.46075965074885   11.40713415266022   16.69951936508276
P         7.62377033551845    9.34883337656024   16.12098137938141
P         9.30205450522865   13.46152378061404   17.28603080700085
C        10.38731801897250   13.22637902934721   18.78004972290101
H        10.50495994856407   14.17703116592434   19.31256484525359
C        11.77228671074510   12.68258207259899   18.43265373667200
H        12.33617275857135   13.42329761441346   17.86177181474645
H        11.65982591084465   11.78565484164709   17.81767077532741
C        12.55414620657431   12.33785839727615   19.69865192691302
H        13.53360484751304   11.94076535539479   19.42356873967974
H        12.71594443180385   13.24571093659617   20.28642822648728
C        11.79752971298026   11.31868668307310   20.54254617377154
H        11.67014862310423   10.39807752163397   19.96880740039811
H        12.36819966160246   11.07974793363852   21.44224347416219
C        10.42863192333487   11.87297173318354   20.92004408118598
H        10.55590932317127   12.76856125003023   21.53413413900602
H         9.87464709736891   11.13977508666589   21.50987340899385
C         9.63966086805179   12.22345930405679   19.66465839534348
H         8.66085630699682   12.62371521580283   19.94097137720598
H         9.47614101853934   11.30886949505776   19.07150161356669
C        10.39241927954592   14.20917194066845   15.98472136162646
H        11.24099634405452   13.51216909113859   15.96625939103244
C         9.74146934051854   14.11584618293540   14.60468877545947
H         9.34845223295849   13.10345069802725   14.46203135222871
H         8.91337579398125   14.82046401533166   14.51684911796278
C        10.78457641083220   14.42731197718470   13.53594113808645
H        10.33102276461902   14.37407907653485   12.54407792992522
H        11.57945283938342   13.67941967390250   13.58080867180630
C        11.37543598618838   15.81741736800360   13.76123618594396
H        10.58857434371208   16.56693766450474   13.64337770667639
H        12.14301145325336   16.02090561041296   13.01193404565539
C        11.97634226134088   15.93465654108186   15.16009451733975
H        12.81046100133356   15.23527528137098   15.25452932976299
H        12.36649342627259   16.94354594782963   15.31306029240083
C        10.92500152320881   15.61688999049864   16.22323312672727
H        10.11370859127325   16.34246465205264   16.14067377751080
H        11.36206435715074   15.70287885321948   17.22093952299042
C         8.03170015663499   14.69371603159222   17.87407900310538
H         7.42322068458937   14.07928336124984   18.55369870866558
C         8.46671250337390   15.93938215792500   18.64152968604185
H         9.11117845051547   15.67998574814139   19.48316271406191
H         9.01571692623038   16.62258602556410   17.99327555951666
C         7.22192396005299   16.65074414192156   19.17520812710940
H         7.51928477559975   17.54542042047276   19.72720532092139
H         6.69754495218594   15.98911724278124   19.86860726110888
C         6.27902145167972   17.03216097763246   18.03785239081784
H         5.38884069401447   17.51744475576598   18.44285287636133
H         6.77805932185080   17.74769717872911   17.37900817385034
C         7.12513542842690   15.09071327883238   16.70954397842813
H         7.65796621222908   15.76527221036610   16.03592432631773
H         6.84056239218740   14.19338856694336   16.15072732234533
C         6.55102230124650    9.56999316034272   14.61612770607426
H         6.43308938722271    8.61333507094914   14.09444279205513
C         7.30830483565184   10.55942955726344   13.72467719511662
H         8.28748849260207   10.15282950175104   13.45955373265757
H         7.47123283057611   11.48022953581828   14.30804895517150
C         6.52907050449198   10.89772541892602   12.45989383983054
H         7.09006174688082   11.62135213085997   11.86490084940508
H         6.40217050271788    9.99520168104423   11.85594504155068
C         4.39385145960746   10.45661110769169   13.67293478780484
H         4.23213474930264    9.54220097775764   13.09540504070581
H         3.41422241124087   10.86090713129023   13.93671209583918
C         5.16638419620284   10.12433345017729   14.94792517986644
H         4.59544324983702    9.39392019897932   15.52499977320559
H         5.27978334072437   11.02844243945755   15.55218357035644
C         8.90051139317742    8.11402284392948   15.55346496091681
H         9.50841377377003    8.72278417531777   14.86832027224125
C         9.80573472148697    7.73559140354871   16.72516118190438
H        10.08315980996352    8.64076884522435   17.27492223573313
H         9.27518465215314    7.06527121864502   17.40478195943786
C        11.05663089974989    7.03110416751297   16.21047827311008
H        11.70089514302217    6.75482803227418   17.04792744626667
H        11.61717968380563    7.71408635073223   15.56913577382446
C        10.66763275722170    5.78536121342303   15.41971199765039
H        11.56199071456080    5.30196874203302   15.02172196648242
H        10.17216087316522    5.07344496076516   16.08512648976054
C         9.72443794389748    6.14788249811264   14.27636030593557
H         9.43407293797123    5.24512629813998   13.73386739571616
H        10.24578911109760    6.80510251380531   13.57654993247831
C         8.47413237020544    6.85690890443845   14.80012117150565
H         7.82833015169825    7.10215823731877   13.95528893003899
H         7.92946353072676    6.17748321756642   15.45593142845736
C         6.52195650681656    8.61016088506371   17.41793607778057
H         5.67558482138962    9.31007696794345   17.42734748766921
C         7.16270325856855    8.70630118989893   18.80250905353657
H         7.55820344671940    9.71773255534628   18.94468572802231
H         7.98754180609571    7.99898425651242   18.89907298641069
C         5.98640961032480    7.20328951662026   17.18100636702701
H         6.79447512949129    6.47535365718128   17.27360102048676
H         5.55747896685806    7.11429318887414   16.18007128433874
C        10.23395385650768   10.98154773952852   15.87791064897072
C        11.27247460927518   10.73972388496214   15.29703317002609
C        12.48353922314891   10.44342226906058   14.63273952237162
C        12.47755993668735    9.70401649246693   13.44517449489206
H        11.53346663276626    9.36851369803826   13.03604617807309
C        13.65567111046049    9.40791177672149   12.79689312009163
H        13.64713010915507    8.83488656631774   11.88002457785056
C        14.87462654684275    9.84596738621083   13.31870865780015
C        14.88641207604223   10.58690311111113   14.50237486755262
H        15.83080168582144   10.92679059321320   14.90446710264263
C        13.70717684467618   10.88096092303325   15.14993743111593
H        13.71876918446165   11.45232223651485   16.06848692313190
C        16.08554394923846    9.54303510887431   12.65419356320735
C        17.11404145648142    9.28714916164722   12.08958092445847
H        18.01198749935860    9.06299852208111   11.59591894769815
C         6.68531970096779   11.83421112262649   17.51488207669526
C         5.63834748042500   12.07842650706806   18.07905622765274
C         4.41750243239383   12.37424216480691   18.72548419977133
C         4.40759982976037   13.08179858086412   19.93225831571839
H         5.34697712305364   13.39383315507189   20.36979162521689
C         3.19970529337937   11.96729261289108   18.17082292079224
H         3.20054486191367   11.42082271769001   17.23720971451448
C         2.01073466727024   12.25963610635927   18.80108627952147
H         1.07092356862744   11.94334669298670   18.37005811780385
C         2.00669325771759   12.96803111564677   20.00456474433523
C         3.21970096335846   13.37592154830828   20.56339948791619
H         3.21588490653341   13.92402794003110   21.49540141786804
C         0.78590687321566   13.26803813602100   20.65208415438997
C        -0.25079972095355   13.52125873845082   21.20282147434696
H        -1.15657151566660   13.74308878286196   21.68294497855811
C         4.92530681738896    6.89368820408793   18.23679120659181
H         4.09484996865666    7.59614971117711   18.13331048296558
H         4.53222148967757    5.88584451829723   18.08444564002492
C         5.51596511073605    7.01361664713386   19.63976396638983
H         4.74199158092371    6.81576727692409   20.38397402457685
H         6.29901537011531    6.26149830290744   19.76622256288974
C         6.11044599330488    8.40228021121939   19.86447756825042
H         6.55677856660003    8.45731721763055   20.85952231501610
H         5.31870030558839    9.15292021635965   19.81103205558432
C         5.88001019561440   15.79744657555430   17.23499028780330
H         5.23545580013915   16.08656992506836   16.40212421876675
H         5.31670529659983   15.11131626485716   17.87050895823951
C         5.16004838386591   11.46219750554317   12.82142213318772
H         5.28762129217562   12.38929279585669   13.38456890330124
H         4.59623164407766   11.69234042433807   11.91513442995210

