41
CSD_code = BEZKEY | q = 0 | S = 0 | Stoichiometry = C22H11Cl2O5Re | MND = 8
Re        3.94388480346671    3.48583526180272    7.19519761292156
O         3.25862294195578    5.59912749725106   10.64391412716933
O         1.52488424522429    5.78065245689892    7.85609641197528
Cl        8.93331188287382    3.25084603364429   13.36145078720385
Cl       -2.26954927432023    5.98938279418525   13.37011486693365
C         3.39276334091125    3.55494691691918    9.51094709134658
C         2.17724277305453    3.72760815579119    8.77229342006767
C         1.93278435599042    2.55209638014990    8.03758163078517
H         1.02661431650918    2.32757253299975    7.49513900336592
C         2.97868661578811    1.62273236475846    8.33900134414137
H         3.00070696326929    0.58851614006509    8.02917310725912
C         3.87955992701584    2.23481696017135    9.22520569668602
H         4.72047972208106    1.75685851898093    9.70427945939645
C         3.85769775118818    4.55162989051394   10.47020455111219
C         5.11308263095387    4.21202883081318   11.20361590406764
C         6.21183579386417    5.05590576108290   11.08706926656848
H         6.13765299106783    5.93927665917798   10.47074293554201
C         7.39247813851898    4.75925535830788   11.74120697011057
H         8.25000067394691    5.40538678237813   11.64221904934199
C         7.46391092361186    3.62361976178137   12.53379410606669
C         6.36874471363596    2.78521860545727   12.67787165442833
H         6.43468532920220    1.91317784108198   13.30960732931833
C         5.19689821298512    3.07882989607831   12.00542443085758
H         4.33600037467327    2.43696081531798   12.12972452886954
C         1.39336710967122    4.99160550597229    8.77304314018718
C         0.48067958530466    5.20173679402436    9.91112564807364
C        -0.11040271886217    6.45534305210884   10.06733709399383
H         0.11745930797816    7.22518767875624    9.34593727597829
C        -0.95407791990114    6.70434874150511   11.12912486416339
H        -1.40735737508033    7.67461787473737   11.25777993708674
C        -1.21416324335381    5.69014996287956   12.04113485607629
C        -0.63735077493665    4.43510035460130   11.89885331605090
H        -0.85197715531310    3.65987731703205   12.61787194537998
C         0.21015489617749    4.19473845110836   10.83655912958783
H         0.65621599859151    3.21611924469595   10.72747880430393
C         5.86149385830370    3.78602963572670    7.24401141149395
O         6.98601130315021    3.94313563442528    7.38711511961472
C         4.07079850505116    2.65393871478020    5.44478344913340
O         4.09044341013746    2.09551247300247    4.44541331830252
C         3.66647831283028    5.23925383178398    6.36293740960373
O         3.54194675278258    6.25522251725240    5.86861799543285

