42
CSD_code = BEZLID | q = 0 | S = 0 | Stoichiometry = C15H19N3O4Zn | MND = 5
C         8.43853333326201    8.89705534923873    5.49483137203083
H         7.90257374914846    7.96537595533200    5.31318440457065
H         8.13722049582561    9.61781834733259    4.74024382434386
H         8.14963561746892    9.27810337850017    6.47399263693881
C         9.90793987457222    8.68973983731565    5.41799946181824
C        10.83456987506554    9.21998976639006    4.54342853594446
H        10.64571641530030    9.89642287386144    3.73527799372464
C        12.07198035239985    8.68753158993398    4.92841860349001
C        13.40017182532486    8.93454047510577    4.31858691156099
H        14.01851499478856    8.04614852794584    4.41401703528672
H        13.90127393170216    9.74928414031100    4.84096536086649
H        13.29087813450938    9.20463515300619    3.27100632073555
C        10.07494993522811    7.08858304949083    7.33637644551307
H        10.52369816232027    6.09118449366129    7.25383841937047
H         8.99059006904437    7.01972118510221    7.24915330748197
C        10.47938569514154    7.65643929906008    8.67217674151631
C         9.55949550615474    7.92011846828081    9.67864091612806
H         8.50891673778774    7.72633216253529    9.52336100679225
C        10.01811709409671    8.42759841575432   10.88419369825411
H         9.32602811966332    8.63635034111578   11.68681889999025
C        11.37453082437020    8.66538024934617   11.03643645747123
H        11.76978766684865    9.06353114845950   11.95705054219549
C        12.22114767067255    8.37590218020099    9.97778741783688
H        13.28685358114939    8.53830621419046   10.02561260428244
C        15.28158788813243    8.11889375710736    6.98731778354168
C        16.67562818391965    8.67314178668247    6.78525022530190
H        17.34692210966032    8.15994122612624    7.47044186730901
H        16.68917443141730    9.73650595213580    7.00474877769163
H        17.00624174966840    8.48174328079345    5.76854934409420
C        13.18204177674358    4.94984182744899    8.38886008325366
C        13.22168180713137    3.54623090774296    8.95735952329664
H        14.20219930283779    3.35063316982679    9.37984478740466
H        12.98744228196821    2.82658226983556    8.17898319547242
H        12.47715391575921    3.46967664044933    9.74784073577208
O        14.95298772548438    7.06483888281752    6.39714136250884
O        14.47597148219853    8.72069435508666    7.72796067010120
O        12.42799659045086    5.19398378307436    7.41682566998554
O        13.86355394770824    5.84903120873403    8.91637081317769
Zn       13.21516838411766    7.11727348445875    7.41371180284958
N        11.89840441069713    7.88520082154406    5.96974113482728
N        10.59146385105408    7.88526102334852    6.25667353734389
N        11.77777049920497    7.88013302131371    8.83477976792224

