45
CSD_code = BEZLOJ | q = 0 | S = 0 | Stoichiometry = C20H21ClN2Pd | MND = 4
Pd        2.66498954816463    4.26935191740807    8.10095063791919
Cl        4.27977626828307    5.69071147842358    9.05982582435450
N         2.15002969659177    5.83426040359747    6.88426758541998
H         2.58772192379538    6.68152208508521    7.25629620321711
H         1.14437469226073    5.95914358175385    6.75494719938490
N         3.24286377567349    2.77537359833702    9.22307618984188
C         1.26994131088057    3.21276373065110    7.09840176391167
C         0.28862319581766    2.39123641917542    7.64077353871861
H         0.26339197753694    2.20685504306134    8.70973195865921
C        -0.66497797556744    1.77489380644025    6.84238961224893
H        -1.41351991985878    1.13766002883815    7.29251924364256
C        -0.66023698441456    1.97799001478652    5.47425560789854
H        -1.40939011753791    1.51138795537945    4.85085036963752
C         0.31223691778439    2.77937108605299    4.90518156569349
H         0.31313331546587    2.95042156488780    3.83730440684483
C         1.27634720565242    3.39208936754761    5.70100474314528
C         2.34978582232141    4.19619218547023    5.07838218393704
C         2.98071105609941    3.78243282810085    3.91090230012037
H         2.64805710104944    2.87495002894475    3.42875449060729
C         4.04572033308245    4.49229738462203    3.38202612579873
H         4.52611296290909    4.14648683957122    2.47916778337363
C         4.50473471898458    5.63038162581767    4.02028845200249
H         5.34481397310129    6.17843371833714    3.62169449416743
C         3.87884795558516    6.07675094504767    5.17304134768818
H         4.23141975094384    6.96780416396935    5.67409332779521
C         2.80794599401475    5.37164892727957    5.70532705891396
C         4.16342563288063    1.92727862614273    8.75571306663585
C         4.70230540169650    0.94642838084084    9.57038520189282
H         5.44161378427324    0.26655404927033    9.17586944447143
C         4.29922880958277    0.84555060516953   10.89943166594960
C         3.36794046796692    1.76652452339858   11.36065807777519
H         3.04479580595528    1.74624738106315   12.39008220147579
C         2.85960571277618    2.72937689152197   10.50050321345153
C         4.57570410028164    2.11608284283721    7.32791386265223
H         4.85221012725984    3.17074853138521    7.16535451476050
H         3.73616341675338    1.87569501635630    6.66665148158509
H         5.42179377136965    1.48259755078724    7.07486717459880
C         4.87601001578586   -0.20410780502404   11.79296196561969
H         4.38336237693450   -0.20725971139812   12.76135757476112
H         5.93904868099602   -0.01999850129789   11.94407359902499
H         4.77146859697767   -1.18782033351033   11.33857733412865
C         1.91354727413078    3.79662849922908   10.95356541608462
H         1.10203229819664    3.92729783691226   10.22093482199995
H         2.46900608472233    4.74148751061094   11.00694319905075
H         1.49768314286573    3.57427737714428   11.93300216913564

