27
CSD_code = BEZLOH | q = 0 | S = 0 | Stoichiometry = C13H10CrO3 | MND = 9
Cr       -1.46423481559972    1.65721746790694    8.50572102841093
C        -0.54743541935450    3.04990059313440    7.75530890614617
C        -3.03861338217055    2.48220001638219    8.07817644516805
C        -1.58599014655170    1.19131197906548    6.74921026299731
O         0.00576576540875    3.87484126221337    7.16912456662198
O        -4.01706642167452    2.95493371115779    7.69208752154555
O        -1.69882647550534    1.03262356446607    5.61058755212850
C        -2.54730938931420    0.00921475041118    9.91811790823581
C        -1.65073254061035   -0.51758066804697    9.02548720298099
C        -0.25546060096306   -0.20504228605769    8.84868271399249
C         0.52095392605938    0.69432000747319    9.53096784962430
C         0.19042839750352    1.22485236567848   10.90761888411816
C        -1.20110315855494    1.79374805924346   10.79123960045241
C        -1.52583262012678    3.04969151231561   10.43624072669488
C         0.00186176959702    0.07324660820593   11.86420904698860
C        -1.28137375079605   -0.21278618195283   12.02662868853994
C        -2.15510325889895    0.70153885194305   11.20373281753729
H        -2.04682977827233   -1.22351435813289    8.29936844341873
H         0.21493187855890   -0.71545409093821    8.01191600918630
H         0.93907295952560    1.94927552919626   11.23718930474525
H        -2.53712078352906    3.41315813279122   10.55264053742786
H        -0.76281317175694    3.80758856400370   10.32784514400700
H         0.83628403180470   -0.45058905826599   12.29716179618201
H        -1.69138075175875   -1.01400315373046   12.61634181778119
H        -3.03760410907452    1.06243443372201   11.73797479890954
H        -3.57892385731509   -0.31489844238770    9.84069379858220
H         1.54205570336937    0.83127083020242    9.19392662757662

