95
CSD_code = BEZMOJ | q = 0 | S = 0 | Stoichiometry = C38H52S2Si2Zr | MND = 12
Zr        6.05200488779364   -0.07708067814160    2.56357161333950
Si        6.37968091435502    0.13842213160110   -0.53916301309263
Si        8.97933281059668    0.63298197586308    1.66115170775901
S         3.74374537618096   -0.94082242730699    2.02682772045307
S         6.90194035611695   -0.20414995965229    4.93012349297944
C         6.32098444066683    1.49275647327221    0.78325780270723
C         7.42349709618354    1.71058264183581    1.67516294526657
C         6.90681782890662    2.31921356494992    2.84378794263504
H         7.50415714209064    2.67469460785865    3.67315231098020
C         5.51104597804178    2.49801637025702    2.70037593689975
C         5.15188285608341    1.96485174514287    1.43757743034156
H         4.16294470224242    2.00962876356713    0.99394934577543
C         6.92075464939859   -1.22569073742870    0.67143102779434
C         8.02449456432518   -1.00753730082091    1.62248348629501
C         8.25734717406028   -2.24623000977122    2.27042344530768
C         7.34988729006329   -3.18394605201156    1.76788312549197
H         7.29172770795781   -4.21440646885785    2.07076590471924
C         6.53083155135399   -2.57783302671715    0.80485683080197
C         4.63896667914462   -0.02310191147462   -1.31690888681613
H         4.34742375778007    0.92159339484961   -1.76585209939816
H         3.88182628370533   -0.29562856596428   -0.58810389910020
H         4.63324841912783   -0.76860318560769   -2.10431996928014
C         7.59224860833795    0.45384686769528   -1.98727738704034
H         8.20780277234831   -0.41708434574453   -2.18386183249921
H         8.25021405823183    1.29039419914162   -1.78788249383876
H         7.04118269595061    0.67646377626669   -2.89443474298661
C        10.22220440318002    0.87662750324141    0.22471361608238
H        10.13150202111774    1.86393196390091   -0.21395689772081
H        10.08131603469089    0.14518051514455   -0.56124836954830
H        11.23853611191175    0.77691022431137    0.59028710404019
C         9.92674025724275    1.00059362119823    3.28366166583812
H        10.82330281695166    0.39676639244083    3.36476293733637
H         9.31837393190768    0.81848817714863    4.16518613832869
H        10.23745391287444    2.04058741388432    3.30351930058550
C         4.61604067918699    3.25921518957235    3.64650512655204
H         3.59906269430096    2.85598810572580    3.55731741343468
C         5.07927797316555    3.04980586687180    5.09341299686622
H         5.32004089986930    1.99764138794896    5.26114121488192
H         4.29722381652233    3.33117863945083    5.79288107843921
H         5.96720928337421    3.63558613978951    5.31424199403809
C         4.51210492905978    4.76543224277486    3.25506526283665
C         3.85575599233872    4.87818491991033    1.87529213868072
H         3.69578777492046    5.92382638063686    1.62109071615760
H         2.89125003672573    4.37402890645888    1.86564445543061
H         4.48915685651287    4.43766280544129    1.11024195877727
C         3.62820884205070    5.49767682317368    4.26917333651894
H         3.42917602831351    6.51040964713475    3.92473307912906
H         4.11133662886304    5.56419503073535    5.23975808189198
H         2.67591798631904    4.98445461843255    4.38776543581591
C         5.88464191657668    5.43752679644398    3.19443932514114
H         6.52627668764994    4.93379996502698    2.47599960822687
H         6.37471879712728    5.42954603819529    4.16441291153533
H         5.77246481424925    6.47463265451618    2.88591944540428
C         9.38263856655347   -2.51042893877286    3.23503507699105
H         9.44135214606570   -1.67318730086570    3.94199078193064
C        10.70340810776791   -2.58501139183510    2.45814297303947
H        11.53898236415731   -2.72666569145350    3.14059721499576
H        10.86635992723173   -1.67520912164359    1.88645345111558
H        10.67579250744128   -3.42362082823007    1.76568725811682
C         9.19176124075438   -3.79992720655661    4.03274251641026
H         8.24064407694546   -3.79983531411175    4.55837016400658
H         9.98773922731763   -3.90219148923985    4.76767681194744
H         9.22648968145177   -4.66475960265285    3.37433911540868
C         5.49318394313639   -3.27601559564660   -0.02980982398586
H         4.80862964329656   -2.52397868692191   -0.43357816380323
C         6.18106484359023   -3.98416141467034   -1.20249368445583
H         6.73781405637853   -3.26593704106929   -1.80023672367065
H         5.44617699891253   -4.47316690064174   -1.83842875146227
H         6.87496058979302   -4.73517536774911   -0.83166327827896
C         4.66895342998448   -4.26979544103010    0.78927807760266
H         5.29961386158170   -5.05473285847940    1.19932781291731
H         3.91125578750724   -4.73409686302227    0.16158064356693
H         4.16565256535914   -3.75415313289579    1.60547099850368
C         2.93574434861622    0.11225422120213    3.17875090623169
C         1.84676280679775    0.88439043424564    2.77170980601990
H         1.54284912615339    0.85525139433723    1.73520505610287
C         1.16439988411915    1.66124390386586    3.68776550110032
H         0.32477885698468    2.25748997527901    3.36097614113814
C         1.54610404565959    1.67046003426057    5.02086689150594
H         1.00466977646531    2.27132711370684    5.73571319057246
C         2.61682674036605    0.89385731750217    5.43421298132330
H         2.90812438209466    0.88127510330345    6.47418854262160
C         3.31715435796433    0.12287598695656    4.52334441489213
H         4.12440554185831   -0.52318289903195    4.86564642273186
C         6.43340643247734   -1.83917337348806    5.34179801860210
C         6.72478030891746   -2.36207941147970    6.60151129692767
H         7.25602812983051   -1.74764746471012    7.31236067869347
C         6.33633787472406   -3.64776249022153    6.92178706393503
H         6.56871469672591   -4.04565745026417    7.89850056664721
C         5.65137728698617   -4.42671566940509    6.00113856619725
H         5.34769476958319   -5.42971060578441    6.25842724931157
C         5.35824306158585   -3.91247739624111    4.74775561692244
H         4.82528629357764   -4.51107190248903    4.02407671453847
C         5.74793646207013   -2.62800838257430    4.41464141428306
H         5.52542852321076   -2.20949806366231    3.41950166853281

