73
CSD_code = BEZMID | q = 0 | S = 0 | Stoichiometry = C26H42Cl2Si2Zr | MND = 12
Zr        4.87364561163253   14.35119454729710   15.88318766461658
Cl        5.66843541713266   15.76832181955312   17.55890652760042
Cl        5.72400765341191   15.54623328046800   14.06489462536643
Si        3.58649683160438   11.99455167327696   17.61537979183989
Si        3.59256380289244   12.05627597947164   14.17747555490058
C         2.76550574490257   13.38697607506996   16.63616542675392
C         2.77591674466401   13.42537094561670   15.20373655697218
C         2.70223106435516   14.79418771061943   14.81721127287508
H         2.62285757728781   15.14822328352011   13.79591014515968
C         2.62377862920824   15.59652813912174   15.98428229095613
C         2.68061273737156   14.72368327439528   17.09430863075322
H         2.57590541959288   15.03368999458093   18.12730425889757
C         5.20142026465676   12.13665265944396   16.62947735828745
C         5.20800710081155   12.10800569795626   15.17646343803985
C         6.46495660070480   12.61984172616288   14.75015130140529
C         7.20293433256127   12.98733843862641   15.89374612241497
H         8.22161384517914   13.34581860356912   15.89150803928920
C         6.44412774336618   12.69090157061866   17.04797093944671
C         3.66447594315055   12.57989920333863   19.43336505112882
H         2.66195696130810   12.60556679454372   19.84925549543902
H         4.08498026278123   13.57791779743629   19.52415206940496
H         4.25008548927655   11.90622744261347   20.04854403379527
C         2.76157210169424   10.27183058765817   17.58199445364741
H         2.39120494745223   10.01879117792491   18.56892828886953
H         3.46111340855954    9.49811549027539   17.28650876718930
H         1.92201379485647   10.24247580051754   16.89899689857770
C         2.73916817150899   10.34872634858335   14.10819593446411
H         1.68119756290686   10.43080891035972   14.32739684728726
H         3.17314583612708    9.64444256815180   14.80614975393400
H         2.83322311869050    9.92850822269242   13.11335246337867
C         3.69635210017548   12.74292383465128   12.39615290864849
H         4.17239679375585   13.72009675741375   12.36542718871472
H         2.69735901630432   12.84636468879294   11.98310687748671
H         4.24445344828107   12.07537427511295   11.74087979760303
C         2.46609973279070   17.09391782894181   16.08846159450141
H         2.64132922962092   17.36147419644774   17.14031947050112
C         3.55786260508025   17.78356024852345   15.26192006943168
H         4.53883827546223   17.48033923438916   15.64165207930132
H         3.49050043145089   18.86473183487199   15.34853934638652
H         3.49809196594279   17.51335675163397   14.20908773417173
C         1.01726892615976   17.56234496892860   15.76454652602062
C         0.05459350989492   16.82499745675488   16.70249903956390
H        -0.96984577626805   17.13732986924619   16.51226038870561
H         0.28975431521949   17.04264313900478   17.74210407570702
H         0.11824058442341   15.75015460383284   16.55260482477435
C         0.88835322313254   19.06720266565083   16.02212147364119
H        -0.15793803937555   19.36222453550894   15.97643998494706
H         1.42872270046164   19.64358152840723   15.27620808670975
H         1.27124836022139   19.32657347446433   17.00680546283890
C         0.61487022025937   17.26853007255208   14.31905317926316
H         0.57506943242795   16.19776815340729   14.14058303883140
H         1.30970805659011   17.72135573401752   13.61701674616979
H        -0.37404430207075   17.67900641410779   14.12493397222780
C         6.99254910761915   12.57673490625288   13.33708273323702
H         6.27441945945502   13.05617074491808   12.66464676363690
C         7.14566223615230   11.11055915227050   12.91218848041558
H         7.86400823440286   10.60884693377474   13.55700350928463
H         7.49971474051982   11.04828271968980   11.88560270028137
H         6.19375332433974   10.58998960786857   12.98752860295806
C         8.32486596180376   13.31115785947610   13.18941832309868
H         8.22620179069063   14.34382814782541   13.51796384598024
H         8.63086345326396   13.31380096733793   12.14552131787022
H         9.10502255771945   12.82302940595528   13.76961414757485
C         6.95510855430931   12.73902938856828   18.46790350102001
H         6.19817674595279   13.19971439754665   19.11202250239874
C         7.19773184031349   11.30456488268867   18.95519519166167
H         7.95524584540389   10.82601529994520   18.33816480248121
H         6.28324861895345   10.71945258435941   18.89150278686421
H         7.54229864740391   11.30690561985057   19.98688812211995
C         8.23672342675571   13.56284398745205   18.59804259260670
H         8.52076329178644   13.63997402636226   19.64535572354713
H         8.08329304335765   14.56871868420943   18.21126009202464
H         9.05740959020737   13.09392265351833   18.05955039209880

