87
CSD_code = BEZNAW | q = 0 | S = 0 | Stoichiometry = C32H50Cl2Si2Zr | MND = 12
Zr       11.20481747085263    3.52029163021546    5.65437228271948
Cl        9.04053589810412    3.06019806441410    6.39541875028240
Cl       11.76673862696186    1.33362057463359    5.05130482245337
Si       11.30563961816840    6.70567232056390    5.91339532564782
Si       13.93211714343769    4.79208570070434    4.78905812692431
C        12.09580677127085    5.36135781277237    6.98136101645918
C        13.18243303459960    4.55242889603222    6.51437406646185
C        13.10404461656279    3.30484487881894    7.19740862889333
H        13.82869172011286    2.50331856240457    7.11311357255385
C        12.00293603790691    3.33982499015385    8.09116532875734
C        11.38189933329835    4.59999117713688    7.93767751667517
H        10.54880925474865    4.95252524230737    8.53414371890403
C        11.11688461284788    5.53595074385944    4.43182573411582
C        12.24218944778251    4.77204770181899    3.92098754488144
C        11.71195830894472    3.73585657314346    3.10330607720367
C        10.30510856942026    3.82689900130536    3.13039663371465
H         9.62712553860218    3.21251339763898    2.55627294384177
C         9.93032766219726    4.92630340572027    3.93505968626680
C         9.68879592153624    7.22120335451279    6.79333460307852
H         9.92888226402114    7.75234902725412    7.70929331776584
H         9.07564466071897    6.36464623611757    7.06007830704734
H         9.09434155535047    7.88964827167036    6.18106081898514
C        12.32067296038226    8.28735523664858    5.57196202634823
H        12.38615743245284    8.49980655433911    4.51091030722403
H        13.32827321298483    8.20870668292046    5.96006523808942
H        11.85074097074513    9.14022434451823    6.04838131128071
C        14.98738606062009    6.35227322279561    4.47124122029599
H        15.37082964622397    6.76157535294142    5.39866444165002
H        14.42806936656806    7.12997987193826    3.96672290212572
H        15.83978176268412    6.10206984224545    3.84958511231344
C        15.03596646109212    3.25874199290319    4.49476801669759
H        15.43469662320333    3.24096793832378    3.48680544336589
H        14.49574609015797    2.33085685301427    4.66700169038944
H        15.88407724569879    3.28076548462159    5.17272740949190
C        11.55540645330993    2.28458538705490    9.07297747980648
H        10.55786297709084    2.57967359246478    9.42883273994931
C        11.39419090520118    0.94379090524450    8.34719435484306
H        10.65869347872619    1.05844909045489    7.54445255012736
H        11.02799128760758    0.17497663041780    9.02222866815675
H        12.33177826445263    0.60587359452886    7.90927841803199
C        12.46309187962215    2.23143441252099   10.33659048573202
C        12.44495115466999    3.61520601731451   10.99615445806958
H        13.07005575061537    3.61613988947402   11.88631147165598
H        11.43335816814967    3.88738600367750   11.28982368107188
H        12.82134477227641    4.37239952784547   10.31285948860164
C        11.90669663540302    1.21032832735891   11.33408521819375
H        12.05409278457148    0.19300765375593   10.98180924596768
H        10.84385479066202    1.37107518423852   11.50182103937453
H        12.41966247211959    1.30961247005856   12.28850514331537
C        13.90966022873641    1.86522817734570   10.00311888775673
H        14.48242091171056    1.76549252454695   10.92291503148477
H        14.37326079012674    2.64121853806501    9.40054214278159
H        13.96381050079139    0.91994755531632    9.46978859434009
C        12.52390138214268    2.82782424173094    2.21695377486381
H        13.27395737077885    2.30405468327900    2.81852565254760
C        13.26228971133686    3.66577198724713    1.16168932833958
H        12.52711433984739    4.17322752232565    0.53302147676117
H        13.86477331853946    4.43066702243833    1.65665161381759
C        14.14928574596412    2.77594055985387    0.29730087594515
H        14.91165106083064    2.30662424636095    0.92400754107991
H        14.66077933907177    3.37986325986676   -0.45563548045104
C        13.31991369796519    1.68993619056334   -0.38144914195577
H        12.60182728177316    2.15581220668678   -1.06049344100302
H        13.96826774610263    1.04162886691694   -0.97476695961882
C        12.56875630804952    0.86529699667194    0.65964379863301
H        11.96083928456554    0.10590775246969    0.16332829472090
H        13.28499265769634    0.35028015132458    1.30361733424886
C        11.67835297107360    1.76346189623591    1.51338638330469
H        11.15446152666495    1.16164795683845    2.25949134888679
H        10.93816439526462    2.24476713291183    0.87014227372109
C         8.53642086395291    5.48225371724921    4.07422553813911
H         8.33028697199125    5.68902466085176    5.13079466741718
C         8.42820773031172    6.80476177872626    3.29914029005916
H         9.20341290722039    7.49483982650719    3.63946553061936
H         8.59794055058550    6.60800808264261    2.23811201477931
C         7.04873515457259    7.42590413063180    3.49223760992274
H         6.97872798626546    8.35825616156827    2.92740073746142
H         6.90346916545928    7.66347171653433    4.54898414678150
C         5.95692124019183    6.46042602445952    3.04024960461757
H         4.97358506318907    6.90268853677957    3.21361649819798
H         6.05702145850866    6.27924303735016    1.96742939208961
C         6.07258867706711    5.13544484934602    3.78837111868933
H         5.91134199674488    5.30264325875754    4.85567845156520
H         5.30257514365179    4.44409391756247    3.43985622041979
C         7.45331891753231    4.52135204730758    3.57613760307807
H         7.59339341143627    4.32618785866198    2.51059976935865
H         7.52511451753440    3.57426129923838    4.11635309079230

