34
CSD_code = BEZNEA | q = 1 | S = 0 | Stoichiometry = C13H17N2PtS(1+) | MND = 4
Pt        3.54267845640589   -0.85135111040546   10.21278953350481
S         2.65256213338188   -1.81744549283624    8.19887576655760
N         3.25663940489917   -2.66160564349184   11.36072016437028
N         4.31810271839194   -1.29240850433851   12.90713474105074
C         2.50787244338759   -3.70566592707665   11.02774225263736
C         1.92008963956022   -4.53399473288460   11.96909204995610
C         2.09982351348519   -4.24093358990930   13.31189402252080
C         2.88791362520405   -3.15602597927648   13.66618554011915
C         3.46946509546795   -2.40130525564139   12.65543267503856
C         4.99077264526861   -1.20665313869241   14.07859956422967
C         5.81993080992278   -0.15466699729214   14.34589328280124
C         5.98405225510744    0.83501764613933   13.37235353988808
C         5.31565941922944    0.71197242068771   12.17454221717573
C         4.45173975921212   -0.36202162573186   11.90948747055380
C         3.81997806339769   -1.34668438480904    6.89287469421736
C         1.16920705309614   -0.93630926307551    7.63553445482965
C         3.67416371723963    1.01360477180853    9.41141970171529
H         2.38477025595985   -3.88689876230143    9.96901099391806
H         1.32701797066560   -5.37703871366373   11.65619641636125
H         1.63286024362103   -4.84080618548145   14.07662276494060
H         3.00684102454521   -2.89813848319416   14.70551942784819
H         4.87161530265532   -2.01413234362268   14.78301119836071
H         6.34400004973818   -0.10775301102566   15.28594795185232
H         6.63658775571068    1.67377142279923   13.55723746958357
H         5.44839689624934    1.46071536592791   11.41009782176403
H         3.49756608293764   -1.80737290719773    5.96272363148993
H         4.79586273447286   -1.73179760368037    7.17582261828384
H         3.86074376944483   -0.26674765727914    6.79117599647930
H         1.39001593792575    0.11081376833537    7.45418164481100
H         0.41523922134117   -1.02719586552092    8.41168304167192
H         0.81941902652892   -1.41279388705818    6.72360273981416
H         3.48835554035023    1.79918286995827   10.14587994408325
H         2.96485719099944    1.16335778096211    8.59574913294392
H         4.68290024419686    1.15771101886824    9.01016553462803

