35
CSD_code = BEZPEC | q = 0 | S = 0 | Stoichiometry = C14H17NOPtS | MND = 4
Pt        6.03950813706862    0.93099206486894    1.15632346368879
S         8.23117380301566    0.52658943985617    0.36854953897619
O         8.94810840156022   -0.72514481004527    0.61761747383069
N         6.06694479069338   -0.61882104443736    2.64613321602543
C         6.88038682648791   -1.66499952890231    2.69390256711459
H         7.76580204571691   -1.62692328105597    2.07308937925801
C         6.63817646851844   -2.77015250241878    3.49254862612425
H         7.33193102857130   -3.59535188991605    3.49832531639764
C         5.48883075781133   -2.78540109557308    4.26693638086485
H         5.25750461447583   -3.63257226649763    4.89594034596092
C         4.63707727162932   -1.69862867645461    4.21506143973694
H         3.72829846936580   -1.69844818279331    4.79424204519333
C         4.94583788362965   -0.61381678699720    3.39371304800214
C         3.06416417045969    0.85765016110032    4.14003450472285
H         2.84266403076639    0.18581666545893    4.95617876024792
C         2.31126965545160    2.00475443584426    3.99254230433885
H         1.50136090547149    2.21224397976031    4.67662945731766
C         2.60735187260253    2.88928296802034    2.96898030165123
H         2.02370795895536    3.79150135107884    2.85332680599686
C         3.65009055843556    2.62642007665636    2.09502364071063
H         3.85658942317555    3.34105302094238    1.31310371621949
C         4.42278827103363    1.47165462650568    2.20628955608724
C         4.11147720461554    0.58116828310163    3.26151974734582
C         5.75223952767792    2.27702709816663   -0.35044542804557
H         4.70416153351716    2.42860481539039   -0.61383423727352
H         6.25987304756179    1.92540904058624   -1.25559891702983
H         6.16632883377013    3.25965825230280   -0.09753864275718
C         8.96382783710028    1.75348652405808    1.51608027584811
H         8.62673575929598    1.51028529015814    2.52198865112648
H         8.60998864677269    2.74054499441160    1.23561821477943
H        10.04578241323865    1.69585261816165    1.46936600422129
C         9.00180670829899    1.21567477435715   -1.14958881592931
H        10.07661287927811    1.13707443285537   -1.03833025534593
H         8.69130244602344    2.24494136130771   -1.27710793001646
H         8.67509581793443    0.61477379014915   -1.99142055537807

