79
CSD_code = BEZWUZ | q = 0 | S = 0 | Stoichiometry = C36H39N2PPd | MND = 4
Pd        2.07605548183413   10.64378475994555   14.55737874834281
P         2.33471515211482   12.84043553166543   14.79083025297290
N         1.72493991908976   10.77380836917631   12.43390327310792
N         1.82303066207655    8.65619358715832   14.13660807113002
C         2.64235998852997   10.32105137378624   16.52098669031975
H         2.62088512189693    9.26203409305320   16.79725878907956
H         2.00224619825311   10.86944955275026   17.22302573354508
H         3.66907674156199   10.69370825565946   16.65569488819028
C         1.65960160628903   11.58470087607278   11.38309074513572
H         1.61036801198719   12.65626851770809   11.49721834853707
C         1.64340374537167   10.85498536122683   10.18869265529581
H         1.59157787461587   11.26677066044830    9.19832210689194
C         1.69637844764017    9.51906894550245   10.53969785958897
H         1.70398171588427    8.66625367707059    9.88723117961820
C         1.75242557973334    9.48724171074829   11.94457323395469
C         1.74739154414389    8.42354400222527   12.86149170140689
H         1.62121798072399    7.40166274415214   12.49647633379107
C         1.64155595189409    7.62886957855950   15.07029194439304
C         0.47446295084695    7.65691674428798   15.85577113809845
C         0.26340646371122    6.62812653337553   16.75913129841402
H        -0.63163492330728    6.61243529313165   17.36033871237980
C         1.18881339411091    5.60915554438357   16.90297048265997
H         1.00432805614416    4.81039265921261   17.60648059506542
C         2.35516774980495    5.62110713558628   16.16368238683222
H         3.08264179512751    4.83625774382677   16.30756031891498
C         2.60335816441972    6.62567626033728   15.23870425969553
C        -0.51101405367577    8.79350559378880   15.68125918576318
H         0.06797925085893    9.71729780190829   15.44186894594104
C        -1.32238572719176    9.08497295189195   16.94261603050529
H        -1.86611310264180   10.01969292228060   16.81961668749730
H        -0.66570136241335    9.18075196176819   17.80413274665694
H        -2.04941821771922    8.29933293801352   17.13729920344196
C        -1.44829678953060    8.50137819273119   14.50382827056197
H        -0.88903829139881    8.40700121953976   13.57486883699705
H        -2.16979765701290    9.30806315690685   14.38828294838771
H        -1.99093749167568    7.57290276779090   14.67551570981448
C         3.91700604464476    6.66988012105184   14.49088894445998
H         3.90824417228536    7.52431813139292   13.80522224380758
C         5.06662860339001    6.89084974347765   15.47779050178990
H         4.91015843406837    7.81639419899723   16.02847722551342
H         6.01181337146445    6.96146590338415   14.94322227833000
H         5.13323128961170    6.07199070325221   16.19009616092287
C         4.13681543365072    5.40175100653622   13.66527480241119
H         4.21586316301170    4.52757554669215   14.30688158974417
H         5.05475056030638    5.48545292709227   13.08700456515821
H         3.30909838584600    5.24546870524592   12.97605009172195
C         3.57128657687412   13.28891654188297   13.52897122149353
C         4.46973677198174   12.27447514828864   13.19810161811691
H         4.38891173319567   11.30332896524664   13.70265703216365
C         5.43744958108286   12.49084422945250   12.23557117309841
H         6.13076804848967   11.70409333594416   11.97658546767041
C         5.50767129821646   13.71678489400409   11.59196493629543
H         6.25608670509629   13.88454574684747   10.83156114420438
C         4.61340097187106   14.72402588929021   11.91431643976119
H         4.66562562499207   15.67539008452481   11.40491980788673
C         3.64594982972151   14.51563063970252   12.88248779949339
H         2.94153855208503   15.29946009219302   13.12096667385146
C         0.81089896654126   13.75051205454207   14.39850558574557
C        -0.27434395206105   12.99553901575800   13.96261626369721
H        -0.16553218134715   11.91263910886878   13.87965868282065
C        -1.46703734774706   13.61658628887975   13.63948773073050
H        -2.30711169099951   13.03071035311255   13.29653015084519
C        -1.58324932605115   14.99229008016019   13.75773062838888
H        -2.51242435019415   15.48001368193405   13.50213160902684
C        -0.51309659583538   15.74455457728856   14.21623887804979
H        -0.61221609616185   16.81517461310994   14.32251139002563
C         0.68123049139212   15.12844521348098   14.54346022257634
H         1.50667896712679   15.71197567879807   14.92877099959236
C         2.91862444530153   13.72012442655930   16.27239272992518
C         2.02398701971578   13.88644147478825   17.32686172265853
H         1.00821966785929   13.52761820099779   17.21855729669680
C         2.43069275513260   14.50443215855695   18.49327183857952
H         1.73258223491711   14.63504449855528   19.30716072852962
C         3.73637327738595   14.95328526666629   18.62000857402762
H         4.05481686754332   15.43651542812442   19.53180462997552
C         4.63347971189521   14.77701402266907   17.58001397877683
H         5.65237207112502   15.12156647781724   17.68117143675322
C         4.23053079855049   14.15793279359848   16.40959329167153
H         4.93275718197558   14.01614301344119   15.59940960008683

