67
CSD_code = BIBDOH | q = 0 | S = 0 | Stoichiometry = C26H26N4O10Zn | MND = 6
C         2.56243124526696   12.70796911511664   -2.02248771205250
C         2.82392845271788   14.07169842310032   -2.06809063205930
H         3.65630498734325   14.46887089201417   -1.50775551779462
C         2.01196375124795   14.89500684010850   -2.82897614356855
H         2.20357332317253   15.95801982918750   -2.86057195137387
C         0.95904090535637   14.37443946562407   -3.55950886586657
H         0.32888487223984   15.01060148435028   -4.16151643302590
C         0.70393339576191   13.00444191135686   -3.53194856730829
C         1.50529542426260   12.18248333220431   -2.75169357568145
H         1.31247827224470   11.12158129075846   -2.72919051794445
C         3.42762630979891   11.76975851728417   -1.23530415857743
C         1.90321989345703    8.39142983734275   -2.28708532344715
H         1.39703863711130    9.20653409717055   -1.79519873283412
C         1.35416569288912    7.77497622358334   -3.40744001915383
C         2.04610743862450    6.70837471068161   -3.97349028526457
H         1.67654101886533    6.21212937132346   -4.85987034754984
C         3.23953336615350    6.31203060116497   -3.39283968714446
H         3.80294994327964    5.48573944474496   -3.79684911589501
C         3.71082131452745    7.00390998711020   -2.28749372658836
H         4.63957923819927    6.73234881988183   -1.80654107182466
C         0.08540169006436    8.32524326843856   -3.97490375630257
N         3.05653017511836    8.02547053834325   -1.75407100668379
N        -0.76240846202535    7.40736024474945   -4.48509375986951
H        -1.64966233986205    7.72211614414588   -4.84342956121483
H        -0.61777791800861    6.42135729077943   -4.36128514152445
O        -0.31766224629285   12.50440727182196   -4.26750484258449
H        -0.34340738425386   11.53832156077238   -4.16842563267280
O         4.62920751048478   12.04293896333435   -1.06297636307189
O         2.86002680996933   10.71948552970207   -0.81549244878508
O        -0.15375297137305    9.51622111427518   -3.99114167451564
O         1.64562002740106    8.50188312644182    0.72204124685879
H         1.34891281778502    8.78611301291550    1.58933723116389
H         1.86420643346886    7.51674138814549    0.81694686717524
Zn        3.60275325781569    9.09196099965961    0.00005174631841
C         4.64307526994189    5.47615653596300    2.02271190880425
C         4.38168929106590    4.11240947994018    2.06845688524778
H         3.54936564734508    3.71508396511906    1.50815446519304
C         5.19373160818641    3.28922211362384    2.82939848701942
H         5.00212076670576    2.22625411825062    2.86122531382661
C         6.24658969750872    3.80992765040724    3.55993057556839
H         6.87674502882185    3.17387891995378    4.16205096389572
C         6.50157950828448    5.17994483992356    3.53223425564575
C         5.70016964636480    6.00177158224621    2.75188548418222
H         5.89293959171507    7.06267182158624    2.72924139243024
C         3.77795962771410    6.41421615817521    1.23523662054423
C         5.30255968802531    9.79286903935450    2.28678952785250
H         5.80865668860283    8.97776852319051    1.79481769383641
C         5.85185663562094   10.40941726585365    3.40698273352482
C         5.16000744286445   11.47602795237607    3.97312198302938
H         5.52968821983273   11.97230570911494    4.85943463760532
C         3.96640420337184   11.87225573187068    3.39274639450660
H         3.40303367979029   12.69853639423926    3.79683708201290
C         3.49486838366423   11.18025611732267    2.28759047703039
H         2.56599967752251   11.45178690674153    1.80681500693709
C         7.12068859880781    9.85907650615970    3.97421199676849
N         4.14909071637275   10.15871173813037    1.75405468024505
N         7.96854982714767   10.77682584668723    4.48454961089252
H         8.85587042591130   10.46197083755196    4.84261365632540
H         7.82388186623536   11.76286888642000    4.36110013117752
O         7.52320564367952    5.68010455646854    4.26767287860583
H         7.54910753119841    6.64613973769310    4.16815180846445
O         2.57629164693269    6.14131559313440    1.06309340992792
O         4.34562726841276    7.46456838389519    0.81561970922335
O         7.35988974222121    8.66810333660973    3.99007842923553
O         5.56017724392996    9.68287947822793   -0.72151068122745
H         5.85815855169976    9.39872501609307   -1.58844173837289
H         5.34131575168277   10.66808461003499   -0.81705629930053

