37
CSD_code = BIBGOJ | q = 1 | S = 0 | Stoichiometry = C8H20N5O3Zn(1+) | MND = 5
Zn        9.50240879607629    0.71534190870805    7.32925741581101
N         8.51902691262523    2.63336292775100    7.53526256597686
C         8.21187172180352    3.05949899191634    6.16561171005980
H         9.14615386537447    3.33978380564516    5.68219093459966
H         7.54743426078050    3.93126632534226    6.16039444614039
C         7.57781437487240    1.92398997457509    5.35028888306011
H         6.52847785117147    1.80605724883906    5.62114732955449
H         7.60844478110416    2.20111632746718    4.29378191353443
N         8.27937658099051    0.65801684003465    5.59623284094419
H         8.86199059628663    0.42418572109751    4.79819939229904
C         7.38800854893139   -0.48198522655951    5.84451705660400
H         8.00409013301106   -1.38281446577929    5.81895645119305
H         6.61345757768587   -0.56591424439800    5.07491377207339
C         6.72372852694274   -0.36162777795220    7.22443135880415
H         5.92894426510693    0.38490378700177    7.19603427689054
H         6.26095673749745   -1.31976267388924    7.47113705437057
N         7.71984809849977    0.03006404071430    8.23239948043578
H         7.92621686976755   -0.76676129054151    8.82887803939759
C         7.31919306306131    1.13668407996042    9.10778036038010
H         8.05763593693348    1.19015443401343    9.91016682998067
H         6.33215810184113    0.96833226748572    9.55269949964231
C         7.29930019364734    2.46134606206177    8.33744791717343
H         6.43411707064704    2.48404942251362    7.67625515987548
H         7.17885790303301    3.28289494306525    9.04864122534553
C         9.46920718666716    3.54002869895931    8.18733507355100
H         9.50789823462840    3.26741881808983    9.24350402129481
H         9.14346554862636    4.58341533702071    8.10282483775362
C        10.87551791678153    3.39380259377001    7.60268537627694
H        10.91592642294921    3.79431476706820    6.58833249061271
H        11.57243764903987    3.97346969766761    8.21565141573754
N        11.23112265795659    1.97011255066119    7.56341923702061
H        11.58375746421921    1.69043160150645    8.47951565846549
H        11.99755144987326    1.81562353523209    6.91167625795680
N        10.81112199319965   -1.21203943850600    7.87885951844664
O        10.50226469333687   -0.87664327254781    6.70834821196138
O        10.42609839269116   -0.43619995242460    8.78002471446590
O        11.42321762233987   -2.19871836556920    8.10799727230917

