52
CSD_code = BIBHAV | q = 1 | S = 0 | Stoichiometry = C22H27N2Pt(1+) | MND = 5
Pt        7.59677319059136    1.72061896322122    1.63265756520233
N         9.22258071219097    3.13384047098468    0.83514960741871
C         9.70764791937316    2.43438890172736   -0.37126904314723
C        10.59795293315393    3.32147501909928   -1.24154348829094
C        11.06491801104487    2.55491014228011   -2.47558508310484
C         9.86431116029624    2.06913219019849   -3.27900808842982
C         8.95755033532684    1.17973699882312   -2.43025965446200
C         8.49383774852062    1.92716734761368   -1.17729443442410
N         7.67092506123671    1.15152929212728   -0.26960720349445
C         6.97868141808294    0.11320055813919   -0.57520273131587
C         6.22849223181970   -0.49535586534390    0.48989430121849
C         5.43530235385836   -1.63236154605599    0.32870338452787
C         4.77120387193435   -2.15837382728711    1.42003698140340
C         4.90218836052603   -1.55760831858493    2.66180944206860
C         5.68765395513949   -0.41949848919770    2.82939324228151
C         6.35577097145519    0.13329470223038    1.75334140047186
C         7.99018764751297    2.14266214536622    3.71345781557614
C         6.81974552026631    2.77928444882021    3.33664413623678
C         6.77470726060836    4.11625298147209    2.72468613522815
C         7.65760232375187    5.14540042385125    3.05496326397585
C         7.58787425732791    6.35988804200016    2.40034012335782
C         6.65164745349620    6.58349697481687    1.39336704832295
C         5.77037797592672    5.55625048267816    1.06527695857858
C         5.81737804407035    4.34366496781144    1.72555741321305
C         6.56873614566153    7.90909997430269    0.71024465824583
H         8.79927924282357    4.02200952607224    0.56180479407163
H        10.01389098943149    3.36204284561410    1.43399825214755
H        10.28172181226093    1.56080873231901   -0.03433053858284
H        11.46079881477099    3.65698825887304   -0.66200331257984
H        10.03452617103167    4.20595387777237   -1.55265272769785
H        11.68799076895078    3.20061130771588   -3.09384585217404
H        11.67115031777669    1.70110105346725   -2.16709734169808
H        10.20390968648857    1.50617343348454   -4.14815279246557
H         9.29536508561681    2.92819881765743   -3.64096393567908
H         8.09558895571874    0.88304422604282   -3.02938185148810
H         9.49730721471036    0.27840227671764   -2.13023225468921
H         7.89848143848899    2.80313531950943   -1.48342149147940
H         6.95052534248345   -0.29879877614317   -1.57933097711680
H         5.34867372984750   -2.09387678286989   -0.64345187178676
H         4.15636446641452   -3.03743604955257    1.30774429571734
H         4.38992410585634   -1.97520956675130    3.51526211192427
H         5.76330376753719    0.00966768005582    3.81811353026052
H         7.94673553284422    1.27145632236863    4.35894224442471
H         8.92526829195972    2.69686560441302    3.74716830933350
H         5.85278429591817    2.36258048260429    3.61787514275251
H         8.37578308907971    5.00339839340168    3.84886748244058
H         8.26456669423613    7.15422128480395    2.67851435899964
H         5.02984987894456    5.71857981047521    0.29617693396032
H         5.10330756876248    3.56315087967426    1.48630695941197
H         7.53800853166154    8.40124611606655    0.68708633871617
H         5.88082076736691    8.55648656216077    1.25452083860879
H         6.19342657584893    7.80600138296107   -0.30497039599347

