82
CSD_code = BIBJON | q = 1 | S = 0 | Stoichiometry = C38H38N2O2RhS(1+) | MND = 8
Rh        7.94521688402227    4.60460486415872    8.02007215312588
S         3.33316068709251    5.27232985108207    8.80744331546097
O         3.31189235230165    5.42406017686831    7.37759244488046
O         2.95575252035409    4.00706258630126    9.36789809344646
N         4.93745613800587    5.43546573860680    9.22242110877076
N         9.60449863314398    5.07380631313649    9.19230006898360
C         0.46852435152706    9.83849020084766   11.52165334273433
H        -0.44917646523886   10.09012185405721   10.99159653338115
H         1.10641027589068   10.72019759576319   11.51231113351153
H         0.21612214207376    9.59592623337347   12.54984207105898
C         1.15182602190537    8.69267064805143   10.84732593636745
C         1.68986036355489    8.85655775134661    9.57247011925257
H         1.60361528033836    9.81309981181890    9.07953131674904
C         2.32913676536809    7.81000557759252    8.93653704547433
H         2.74095071304654    7.91396008974643    7.94525749552934
C         2.42788051374542    6.59302168640758    9.58175895478338
C         1.88958731735570    6.39765613181141   10.83663672573274
H         1.96671746471906    5.42460686742603   11.29524034702879
C         1.25005634660177    7.45098456135483   11.46606043584671
H         0.82255245529853    7.30744362635736   12.44683940086398
C         5.73077540787236    6.59236362304698    8.81665043954182
H         5.56964608745817    6.88465410621856    7.78532487551218
C         5.32691764371845    5.43853424638970   10.63107751952225
H         4.80777953657940    4.69922501601382   11.23329657328250
C         5.12754182387945    6.87919733396922   11.02628515532310
C         5.38064496569631    7.61812356081841    9.86852146194497
C         5.29632438616231    8.99011167329273    9.86566670646178
H         5.50088084488393    9.56647745103824    8.97659479456483
C         4.91503287998491    9.61482671387253   11.04959784494172
H         4.81847897428581   10.68935129388859   11.07299577381644
C         4.65593090303226    8.88217009132175   12.19437936192090
H         4.35869899576235    9.39286751413120   13.09710421454099
C         4.77197514517370    7.49494511916680   12.20198604726967
H         4.57621912601945    6.92767203709439   13.09881009666950
C         7.13559339330438    6.09144352155289    9.19869810918276
H         7.80073094349185    6.93804598268000    9.40470942121220
C         6.84869058462182    5.22427451376047   10.45224714215369
H         7.40801818797902    5.55181530628976   11.33409951732585
C         7.18438410174993    3.75324917410262   10.17273480194258
C         6.18602428041731    2.78256271992576   10.01688552519131
H         5.15673634573332    3.07577608108332    9.87826492994702
C         6.49149589282502    1.43155343951921   10.05375340262332
H         5.69663926571440    0.70950673099443    9.94377881358987
C         7.79394276587972    1.00310565807373   10.25961308076880
H         8.02052489905025   -0.04969133289877   10.32425900878406
C         8.80968319696219    1.93695423683694   10.36011104485640
H         9.83606669900464    1.61948742323675   10.47168372748209
C         8.52331718645462    3.29731521932803   10.29601966756707
C         9.63343719775865    4.27103899890734   10.26560879859792
C        10.65769240027013    4.33543478914750   11.19989428762774
H        10.65097325213700    3.67164983590479   12.04973000980049
C        11.66685114266401    5.26732155717163   11.01908739307064
H        12.47564345834477    5.34249640897168   11.72886041636276
C        11.61822183493343    6.10283636634603    9.91227199467228
H        12.38397412837267    6.84130214542359    9.73995278705986
C        10.56582406146679    5.97541920102706    9.02210555851275
H        10.48709812263290    6.61216428153667    8.15084261028641
C         8.00233335364874    2.84897768391457    6.55449414049456
C         9.01010803558094    3.75377298454999    6.22778875518495
C         8.37751755328113    5.05872504009270    5.99281570147361
C         6.94946716531324    4.86880336146847    6.02058901618774
C         6.71881420967209    3.55823979758685    6.49941979105283
C         5.38773162634229    2.89913632368206    6.59865339707419
H         5.40836615616214    2.05042532180780    7.27654345008895
H         5.10409191845261    2.53661591293389    5.60889053783736
H         4.62188335633994    3.59792753734919    6.92826189985791
C         8.13073313579412    1.37681086988289    6.75597055402323
H         7.49692894923135    1.03107978123750    7.57030144216197
H         9.15764219024295    1.09053206381402    6.96869973686804
H         7.81315233761585    0.86493718487097    5.84638687646239
C        10.46393929956797    3.47452269489644    6.02545845896177
H        11.08498633393286    4.27072887152766    6.43249567620184
H        10.66930714825427    3.40324858821002    4.95658824097929
H        10.75555473356734    2.53679281249501    6.49103195073841
C         9.06818304242625    6.24791502239383    5.41102104994683
H         8.95966024939238    6.22117244426339    4.32566575819717
H        10.13048371782127    6.24778509047808    5.64129985242561
H         8.62333498149295    7.17510163663036    5.76734077797678
C         5.92450428923409    5.79958376540900    5.47010537729353
H         5.78063767281655    5.55768797322779    4.41536493506729
H         6.24727429136426    6.83623325558563    5.53115630116987
H         4.96421342928096    5.67788977672245    5.96796536535597

