85
CSD_code = BIBLUW | q = 0 | S = 0 | Stoichiometry = C37H42ClN3OPd | MND = 4
Pd        5.84012424436754   13.56682187039935    6.51530123339241
Cl        6.00962236692250   15.38015180584106    8.02320909080308
O         6.43598955331718   11.56525352875958    4.54636871008769
N         7.22098587591576   15.55458945415887    4.72968712022260
N         5.47575112178193   14.71510722969913    3.79123417191139
N         5.29279518693081   12.26182521267475    8.08480683217946
C         6.21874573450808   14.67994560125869    4.91793209533206
C         8.19956120506374   15.92446477015328    5.69493378941705
C         8.20895089371295   17.24432438304070    6.16109286794391
C         5.73180833930529   11.94320872936019    5.45723580267934
C         4.69040906687092   11.11203143530479    6.10375577701661
C         7.11152852008732   16.13536454072376    3.49030911216836
H         7.81882332863698   16.85498732750946    3.13358215172823
C         4.32052223897677   13.91425116665487    3.58564704429980
C         4.51865119376551   11.31708776488902    7.49695674647010
C         3.22646660241017   14.07341034150680    4.44966471758173
C         9.12721950745519   14.98056100225390    6.14600999697508
C         7.16384835148322   18.26067096088800    5.76072297118825
H         6.43061462759805   17.79266021923738    5.09771190208102
C         2.10482933093890   12.29562919734385    3.26498515283642
H         1.24242531467392   11.65675593268453    3.14454911597289
C         6.01607394168766   15.60793669032319    2.89922158435914
H         5.57426045381984   15.80697494046728    1.94533140119731
C         4.30514343362742   12.97574998846421    2.54673490780782
C         9.19443120483206   17.61120285392871    7.06660615605129
H         9.21846172956148   18.62129643239485    7.44426325457990
C         6.40367028047188   18.74316592179858    6.99848725382740
H         6.03541276340959   17.88449141741463    7.55526502186895
H         5.56005596202188   19.36244939021834    6.70013221497293
H         7.04493762978766   19.32783123560394    7.65227565664157
C         3.86148758781592   10.23183749039158    5.44032722998849
H         3.97791878670066   10.09347939144745    4.37623730918388
C         5.18825680407051   12.45751801128695    9.37948475818841
H         5.80716018891171   13.23853542184714    9.80480407381552
C         3.17558945905818   12.18072311009083    2.40122238488958
H         3.13607235072536   11.45629018092849    1.60287674633519
C        10.08995811529085   15.39552224957859    7.05804446674565
H        10.81403331332500   14.68508648796266    7.42578129055755
C         2.12822767357178   13.24004358200669    4.27155708890682
H         1.27367657713665   13.33897181980192    4.92231436494117
C         9.11861694208661   13.53698467386194    5.69412231437255
H         8.30350475108716   13.36908950207618    4.97953362207110
C         3.56838920885680   10.55670417885793    8.22001191959023
C        10.13170742465208   16.69917085697304    7.50835130381732
H        10.88700892911365   17.00165762962646    8.21874034939910
C         8.86895576389910   12.62494215731297    6.90442165319637
H         9.73081553193781   12.61186539198369    7.56834531054432
H         8.67336826785481   11.60700999028759    6.56742709603540
H         8.00024129187475   12.99668155513583    7.47678825736025
C         3.14276699722184   15.18849683031898    5.47322262568257
H         4.12083408222974   15.67112504632047    5.59651211677066
C         5.44949755041965   12.81950840494358    1.57157723431306
H         6.30699317486447   13.39730340866876    1.92593313495775
C         4.30438914759889   11.72352640327962   10.18311840855859
H         4.26856143879286   11.92208191800542   11.24270796091232
C         2.73082145934830   14.66644545396863    6.85250552356658
H         1.71216370492795   14.28463066750312    6.85654498398546
H         2.80498574376847   15.47068606589589    7.58143550027220
H         3.41310258791862   13.86309693911063    7.16100901268761
C        10.42766998576110   13.17060725170050    4.99109619121841
H        10.60130361596912   13.82755900457058    4.14100244515640
H        10.37511252699276   12.14628120026722    4.62999257738897
H        11.27580772988115   13.25428772791525    5.66619226546442
C         3.48680530515716   10.78377882401207    9.60909962149188
H         2.77457340606681   10.22438644863664   10.19839465723733
C         5.90891200498396   11.36495975051364    1.46105646946017
H         6.17823562218667   10.99088725285460    2.44461182726240
H         6.78413587272574   11.30665025470023    0.81793942477215
H         5.13503846566780   10.72964531404691    1.03823482882189
C         2.87412317986515    9.53221208552361    6.14458613101104
H         2.22905727457408    8.85253223104623    5.60682401124185
C         7.79829970529966   19.43572745123482    5.01206978269772
H         8.49850963768264   19.96791441376340    5.65067199994333
H         7.02727869335535   20.13410821158088    4.69367459482729
H         8.33763475118025   19.09290566903030    4.13060484922604
C         2.74142688711095    9.66557467701973    7.50270979875422
H         1.99788664874965    9.09948022572618    8.04458371779506
C         2.15706558599414   16.24984477848314    4.97384944176576
H         2.47593474472613   16.64725220327703    4.01196081746349
H         2.10508879145224   17.06958660308492    5.68616769990740
H         1.16124830377784   15.82847905589419    4.85612192234356
C         5.03151621121772   13.35490756406377    0.19786112575196
H         4.21979677679560   12.75889108309252   -0.21237649076294
H         5.87161505117376   13.31287966996502   -0.49161461777634
H         4.68969836268224   14.38614488342233    0.26391301223881

