89
CSD_code = BIBMEH | q = 0 | S = 0 | Stoichiometry = C37H42BF4N3OPd | MND = 4
Pd        4.66481002579172    8.43289941971165    4.58795504183962
F         6.80183908193432    8.47172011235643    6.02729352723878
O         3.14212554785132   10.02014654870781    2.78902011737164
F         7.84525320266483    6.44522011856122    5.90835066354323
F         5.57063479059609    6.62204241123027    5.72653070756624
F         6.61631530283658    6.98557661585207    7.73253567945346
N         6.42388753668098    8.40717988539565    3.32796666482970
N         2.24414826480680    7.59615415007230    6.14757974090263
N         2.32389806312498    9.74427943496460    6.04300492137124
C         2.59650094830030    6.22113484137552    6.03925633099631
C         7.89240010726067   10.31153973284753    2.97671200023737
C         6.85628544206701   12.49328937522086    2.88745422427392
H         6.94045117498577   13.56604311338674    2.79563341642845
C         4.83161090473951   10.80405482284029    7.04117238660608
H         4.85510873152850    9.76355725046834    6.67620929802252
C         8.77310766013790    8.08418800858346    3.10058378454154
H         9.58829987536384    7.37899768592708    3.09612198777866
C         4.18110685607046    9.83317857492822    3.36497584928459
C         1.20738046789237    9.41786990983491    6.77389767719550
H         0.56366536436989   10.16084858846886    7.19585202548917
C         4.16935439977471   12.94627740889275    5.89082211775589
H         5.08697934332517   13.38700745671402    6.24221907524641
C         6.61321003628290    9.73872351203010    3.16598020439234
C         7.46391288614007    7.61074550616493    3.28573334367126
H         7.28253201432618    6.55229558844082    3.42158215811525
C         1.15685688308641    8.06898415085509    6.83799368164234
H         0.43870498947332    7.41946124097582    7.29231697470353
C         5.45280450676185   10.55894866529077    3.16114644008084
C         4.00908306892246    5.86215457530910    9.41603407223311
H         4.14291120243046    4.81064003865183    9.65370891436122
H         3.94393363223414    6.41435301000716   10.35126221544114
H         4.88231588364645    6.20573718584105    8.87280220912670
C         2.85128759649476    5.49412133817423    7.20931767914575
C         1.77327459553509   11.85539562627445    4.97254212569231
C         7.98403766307247   11.71533641095570    2.85869977105369
H         8.96063404737676   12.16358920006530    2.74918596862703
C         5.58156444819359   11.92216929366018    3.01370834661477
H         4.70037695534320   12.54532479966168    3.01494448228738
C         0.45826389151193   11.31695916099162    4.45526394463762
H         0.40357801719744   10.24241557370169    4.64731014736758
C         2.34284927074055    6.35934764727295    3.49049164883686
H         2.12885345493723    7.41493070755228    3.69899115524805
C         3.20419821812215    4.15750370604077    7.08336910018809
H         3.40992918392874    3.57836778132763    7.96920518596005
C         3.31188470474374    3.56074606652115    5.84364389352207
H         3.60298776690075    2.52371548613929    5.76765386941283
C         2.96568274217364    8.62240019828083    5.65567382191584
C         2.68036800246129    5.62837639893227    4.77356742008925
C         2.10341444588452   13.17887337052298    4.70761907941444
H         1.42244332081270   13.79256369674509    4.13945419115581
C         3.28721690951487   13.72146523793751    5.16238817989524
H         3.52500581134143   14.75396276495074    4.95164775628208
C         8.99254682629107    9.42866768683101    2.96071915195701
H         9.99079000355148    9.82521043318060    2.84337304169207
C         2.74078468193130    6.09429062219857    8.59328802198275
H         2.60470177620570    7.17669694379350    8.51455580308999
B         6.75308967125314    7.10585002966204    6.38471321027733
C         6.27468450716356   11.30494405406294    7.00290790321707
H         6.60747184988991   11.42229297777980    5.97296230844078
H         6.91478540022841   10.56668132938300    7.47766719456967
H         6.39131599040959   12.24762276176189    7.53408342489542
C         3.88966716271054   11.61715257683718    6.17917082120673
C         1.09233765690160    5.75073012309930    2.84900047932127
H         1.25313266014159    4.70686927746884    2.59113810749001
H         0.84106512132075    6.29537979638719    1.94210615241248
H         0.24616173072571    5.80624621056597    3.53091775552701
C        -0.71204436671727   12.00049425264522    5.17037288381326
H        -0.63767896335260   11.88835264790095    6.25014908560017
H        -1.65378808268656   11.56574087703389    4.84336696095730
H        -0.72934441803465   13.06390457177581    4.94516987252009
C         0.33840978480510   11.50725549949450    2.94166878666184
H         0.27892985575021   12.55916489557555    2.67593818453910
H        -0.56189109079323   11.01473691406427    2.58127226996381
H         1.19891823688085   11.06804026948914    2.44694630458920
C         3.04574706455176    4.28959090526618    4.70258388862937
H         3.12484666731416    3.81115189614320    3.73899450582393
C         3.53336924332737    6.31313708834156    2.52162843947186
H         4.45979300052091    6.57239206532474    3.06028332362856
H         3.37708310384445    7.02322955469310    1.71019647666914
H         3.65211675178372    5.32019238331310    2.09388074465029
C         2.67615422462144   11.08619992322270    5.71602259149501
C         1.52654453297921    5.50400533255303    9.32016418962033
H         1.65622803500284    4.43485977166906    9.46826394769488
H         0.60948864537118    5.65409235097728    8.75318068932262
H         1.41062394091373    5.97351954322908   10.29446910745991
C         4.31360329525781   10.79094166510123    8.48426660407316
H         4.96521677657749   10.17742294450220    9.10102779959109
H         3.30562634911710   10.38381203083349    8.53970307648860
H         4.29723313261704   11.80171438813136    8.88926167159344

