115
CSD_code = BIBPEI | q = 0 | S = 0 | Stoichiometry = C54H54CrN6 | MND = 6
Cr       -0.00019194385102    0.00135170973641   -0.00196487035402
N        -2.18201590446908   -0.48272641171558   -2.12722998315934
N        -1.87460910080304   -1.57730913063634    1.86132898806130
N        -1.89968686142234    2.17117619455097    1.08656125764849
C        -1.30827399013362   -0.30499074821750   -1.35221193878438
C        -3.13453171344004   -0.80773852059842   -3.02784168585549
C        -4.18376399596708    0.09007842279731   -3.27719219850288
C        -5.14653416449415   -0.26940925645344   -4.20423012914343
H        -5.96157176314726    0.40974068032378   -4.40923499742384
C        -5.07624858648175   -1.48237860543279   -4.86976153469516
H        -5.83576471797556   -1.74563852967331   -5.59042365525867
C        -4.03303116403388   -2.35829678814295   -4.61465273454091
H        -3.98323090976634   -3.30241791396836   -5.13787050514371
C        -3.04926367974174   -2.04021673774840   -3.69601280479053
C        -4.23742946312205    1.39199176903049   -2.53818413123906
H        -3.26834977901836    1.89016745448402   -2.56638061396830
H        -4.48517758095868    1.22425139823102   -1.48964203393201
H        -4.98806880165041    2.04977586736535   -2.96858688080586
C        -1.90621357642714   -2.95983209468957   -3.39338951581467
H        -1.99042261165025   -3.88167641598731   -3.96329262318897
H        -1.88447300281228   -3.19903259021709   -2.32919804344057
H        -0.95836232175461   -2.47752651525833   -3.63715309424313
C        -1.07821451801091   -1.05804363887407    1.15795394295751
C        -2.76643163348429   -1.92401445530230    2.81504303007106
C        -2.67134522768717   -1.33439266107829    4.08701242121441
C        -3.60083153648979   -1.69643375648235    5.04567441576362
H        -3.54536087102517   -1.25285616291944    6.02943262785576
C        -4.59916983191293   -2.61388878867659    4.75817228543930
H        -5.31508929862990   -2.88496789698992    5.51937490037715
C        -4.68458284776218   -3.18047181911086    3.49654449289125
H        -5.46937807206583   -3.89013096401488    3.27772156372736
C        -3.77600693369601   -2.84782873528959    2.50753477656151
C        -1.59156945453653   -0.33131309468384    4.35394713378790
H        -1.65623427174579    0.04487085234797    5.37165021371574
H        -1.67352893987777    0.50704784169470    3.65991073169366
H        -0.60797123701566   -0.77833151094938    4.20359778188952
C        -3.84143499373513   -3.42924884665736    1.12854596458148
H        -2.93196654494449   -3.98989993385649    0.91016329767596
H        -3.92129954427294   -2.63516059044522    0.38510284616487
H        -4.69586121513689   -4.09325148084425    1.02796630828539
C        -1.10943694072379    1.40644934352935    0.65171048563230
C        -2.91301005405910    2.94489251267299    1.53474376675062
C        -2.67156994866176    4.31045856832796    1.76274803797957
C        -3.71143015059342    5.09980526033321    2.21722960343648
H        -3.53894134078437    6.15141342942482    2.39595881056913
C        -4.96710853130421    4.55809912163850    2.44278010756292
H        -5.77020467296702    5.18698560634746    2.79630922474657
C        -5.19279263753507    3.21214500078935    2.21246396413676
H        -6.17319013379694    2.79281521052657    2.38748836883454
C        -4.18045002988298    2.38297095932053    1.75743673282291
C        -1.30311552201906    4.86548306686286    1.51098426697114
H        -1.29030664768988    5.94222017145340    1.65861588377196
H        -0.98345281665096    4.64275036451844    0.49273075951097
H        -0.57908915889971    4.40969139122108    2.18698322181149
C        -4.42989057775848    0.92244136187169    1.52968830828238
H        -5.44275771946674    0.76002489811730    1.16583659667503
H        -4.32189953711592    0.37229687486075    2.46595136058985
H        -3.72035720908737    0.50653521160111    0.81524791465142
C         1.30719118339887    0.30599593480804    1.34930022215733
N         2.17967159472358    0.48184724180368    2.12620320731087
C         3.13098052250120    0.80392634912437    3.02915415970114
C         4.17770839198920   -0.09643798536843    3.27985185930880
C         5.13927815236611    0.26001473709697    4.20931033002330
H         5.95240100976462   -0.42111765179057    4.41534158798993
C         5.07023193770417    1.47245406155671    4.87592760351477
H         5.82882475477474    1.73334674758273    5.59842255530321
C         4.02944573460636    2.35088730065792    4.61953189272389
H         3.98059111320556    3.29457367444319    5.14362489238883
C         3.04693629238065    2.03587421290157    3.69848685494682
C         1.90650805409766    2.95827477318154    3.39444994743460
H         1.99116790488046    3.87907459135541    3.96597246315818
H         1.88793594764994    3.19917173772277    2.33057964800592
H         0.95707582117490    2.47752271054535    3.63510020602004
C         4.23018666202705   -1.39772075202210    2.53964544994592
H         3.25961460976107   -1.89318531782354    2.56397815847381
H         4.48203696096245   -1.22956975562892    1.49214475970444
H         4.97750448981614   -2.05807238856855    2.97189820550863
C         1.07810464203529    1.06059406939940   -1.16190325616566
N         1.87462466445035    1.57938285654822   -1.86545105087477
C         2.76710819637779    1.92553065460989   -2.81873558823905
C         2.67417496305738    1.33362487991033   -4.08980248688652
C         3.60441858431912    1.69503626247552   -5.04796492889651
H         3.55061627975227    1.24970969301993   -6.03102324878963
C         4.60139903636148    2.61408683003530   -4.76083832523482
H         5.31795268710835    2.88462455399273   -5.52163416612161
C         4.68462492118065    3.18299639368797   -3.50011226108142
H         5.46832980560374    3.89394744754281   -3.28158399150730
C         3.77521969966596    2.85106339523806   -2.51163128742571
C         3.83820335626039    3.43506164512013   -1.13361701796480
H         2.92815775425709    3.99576853787947   -0.91776144802159
H         3.91717175100851    2.64237699496930   -0.38858320741143
H         4.69219644800622    4.09960514406290   -1.03291366646118
C         1.59576787350063    0.32896572357432   -4.35632760088177
H         1.66178712981236   -0.04855083086160   -5.37344969250390
H         1.67802184135843   -0.50835144577492   -3.66107232040468
H         0.61154310873670    0.77510940793277   -4.20748579711969
C         1.11008013148326   -1.40368485717859   -0.65398953654251
N         1.90080744323576   -2.16827448798711   -1.08830932333691
C         2.91542429988569   -2.94134405595321   -1.53474019800095
C         2.67522968064886   -4.30702510068193   -1.76340680280065
C         3.71645994579191   -5.09574437264615   -2.21584937425589
H         3.54491719807136   -6.14741526710215   -2.39511991889670
C         4.97230404926493   -4.55330772297901   -2.43871141038974
H         5.77647991823184   -5.18168541301379   -2.79069263632039
C         5.19677515416841   -3.20727540980843   -2.20767906789631
H         6.17731317523639   -2.78739663591905   -2.38059765720908
C         4.18304247202895   -2.37871693157648   -1.75462562988101
C         4.43122481182342   -0.91811029970247   -1.52600424516489
H         5.44353208707435   -0.75515599610459   -1.16083713025287
H         4.32401398013972   -0.36769448581896   -2.46219985763553
H         3.72053443185575   -0.50293378077865   -0.81227912919734
C         1.30657579893838   -4.86284316124744   -1.51451975936912
H         1.29468989780199   -5.93958656508923   -1.66217950582537
H         0.98465675056780   -4.64029036080231   -0.49693846861124
H         0.58372112726469   -4.40746347963409   -2.19204543084550

