87
CSD_code = BIBPOU | q = 1 | S = 0 | Stoichiometry = C37H44N3O2Pd(1+) | MND = 4
Pd        3.56229287182119   12.32885208092204    8.34637728477307
O         2.99956245807338   12.04854079444713    5.92614384501293
H         2.84705804344041   11.15108905627828    5.61143013099754
H         3.73521495982950   12.40004959426109    5.41028535859821
N         4.51749296079957    9.96096896691127    9.95128541451672
N         5.34147985186628    9.90091354622654    7.96560893830128
N         2.40297528758050   14.12393086521690    8.26115351225117
O         5.41078164447544   13.02078092340547   10.33923006997391
C         4.51447316952623   10.59563278322180    8.76358819212446
C         2.33348978119166   14.58816823158967    9.53306805804263
C         3.75329103087063   10.42402551545313   11.05952169817941
C         4.39475976132221   10.81379887961997   12.24170222042908
C         3.28144479031828   14.09675738322065   10.46590654141355
C         3.61537286925396   11.36784941193877   13.24982617825523
H         4.08028412291890   11.66166243624172   14.17688338518829
C         5.52598485085478   10.20848463956041    6.58826814234552
C         2.36145877909060   10.53238869006502   10.90525624077608
C         1.37814680774934   15.55214463451258    9.93729229828942
C         5.87407377223682   10.60852612390979   12.47033293220797
H         6.35928982166610   10.38433354136633   11.51650982266903
C         5.34716891078571    8.87103226200546    9.89603187718578
H         5.48749545711835    8.20791190631562   10.72346020205939
C         2.25732486257827   11.55675363123007   13.08533136004900
H         1.67699577180833   12.01336163365921   13.87244270945957
C         4.96962846206741    9.34961517416560    5.62998748794641
C         6.20863976816377   11.37595291912983    6.22700055327567
C         5.86692745478635    8.83130631840809    8.64564068173883
H         6.56627604565183    8.15428119755134    8.20009415811227
C         6.56095864037656   11.85230262523011   13.03643468896914
H         6.39514484845734   12.70244922130410   12.38093728291849
H         7.63124887145274   11.67361826035803   13.10136295209374
H         6.20198283240630   12.09320710938090   14.03291068469104
C         6.07101249581152    9.41969061179425   13.41825326520843
H         5.66611291425191    9.64850016554532   14.40072641350681
H         7.12990624617014    9.19943099069096   13.52615026530566
H         5.56696704072384    8.52862474942090   13.04922844408033
C         1.36184660379247   15.95686778548400   11.28989031564800
H         0.62168232843311   16.67684202205837   11.60453124873609
C         6.34285633958938   11.65660925671259    4.86975536757311
H         6.87884896820680   12.53979091726900    4.56064662153725
C         1.55945290847609   14.58911148568865    7.36948430557368
H         1.64201391136705   14.19111550112919    6.36522675971085
C         0.49032622817796   16.03458013463980    8.95318771023137
H        -0.25061651443910   16.77298134915646    9.22039730065404
C         1.63446688134361   11.12533350741093   11.93088708934223
H         0.56512951208557   11.23008231008248   11.83640628597800
C         5.12208380323333    9.67843100952016    4.28896881065098
H         4.70222187261154    9.03817963718893    3.53088262461891
C         2.26852609023552   15.44797886090285   12.18215023605162
H         2.24845006309129   15.76717576546644   13.21259109175008
C         3.24655800719297   14.53083476092182   11.77304455268480
H         3.97268177219641   14.15559197849490   12.47738381421435
C         1.61482927078389    9.88315772136674    9.75558558771995
H         2.33295912115410    9.44586782892085    9.05163010730729
C         4.28962631075969   13.15512706614272    9.94584587761530
C         0.58739818623611   15.55462163339330    7.67312552638662
H        -0.07144565054082   15.90293903258316    6.89424975043893
C         6.81626759058970   12.31616125109821    7.24375477560732
H         6.58637894217600   11.97115553172404    8.25827476849333
C         0.74432757086281   10.88226206170375    8.98557543114026
H         0.03227238474739   11.37172010279659    9.64536370354692
H         0.18644806451359   10.36379250180638    8.20805215104019
H         1.37641364842744   11.65345517676203    8.50934175036434
C         5.80946393880124   10.81752892062937    3.91069050411463
H         5.92767266553179   11.05023894605078    2.86373409598495
C         4.40338210679661    6.93183921030719    5.13282402504874
H         3.97592077310160    7.06751122107814    4.14334584894541
H         3.94704410272498    6.04867714502741    5.57271364649357
H         5.47053518272310    6.75131335191278    5.02876614363792
C         4.14692288197350    8.14364951384279    6.02901534939612
H         4.40207883799721    7.85213894909685    7.05158906803421
C         8.33936938890856   12.34418044548151    7.09411191435132
H         8.75267535715424   11.34366213889412    7.19915235059960
H         8.77234504893509   12.97740079863645    7.86367085045032
H         8.63278409139139   12.73471435392297    6.12329491902026
C         0.75918867064472    8.73531044478525   10.30296277359919
H         1.37414463014696    8.03266172099859   10.86051593593589
H         0.28370635623506    8.20189999821852    9.48324359145222
H        -0.01729225928687    9.10779952170918   10.96475915953279
C         2.66086161756544    8.52515887442682    6.01106709326803
H         2.46539116124583    9.34773384938741    6.70091933458478
H         2.05543418194843    7.67584380709971    6.31760401731675
H         2.35136535406511    8.81623625989864    5.00872085761776
C         6.23028095465755   13.72750667415361    7.09245929793636
H         6.50611642212235   14.17020077035151    6.13830420057075
H         6.61433470725153   14.36360273416932    7.88722193717713
H         5.12675135456369   13.70238728491387    7.16661622941255

