83
CSD_code = BIBPUY | q = 0 | S = 0 | Stoichiometry = C33H47CuN2 | MND = 2
Cu        1.65622814125682    8.68841441922820    3.17860600606713
N        -0.44268872339506    7.54207808471818    1.49151075229036
N        -1.32049910521636    8.48906907831750    3.20246303002013
C        -0.13211714412307    8.24216324249684    2.60661681395220
C        -1.79655057654762    7.35664708855522    1.39329634540299
H        -2.23979928486618    6.82421260519236    0.57726634694228
C        -2.35097420386818    7.95455684753998    2.47396593841617
H        -3.37178241217917    8.04508972574390    2.78307522587187
C         0.52012305130381    7.07420403952307    0.55503354292089
C         1.15383510659781    5.85206108748160    0.78602477754902
C         2.10483902468338    5.42833364945433   -0.13227595802112
H         2.61843885047472    4.49286617233375    0.02448428489463
C         2.41339977683925    6.19591478479658   -1.23817275999201
H         3.16247778430479    5.85553607695451   -1.93726668639103
C         1.77651683255062    7.40419267728392   -1.44774402561313
H         2.03934473380685    8.00004074236419   -2.30728245040344
C         0.81528057536413    7.86415582766277   -0.55878118901242
C         0.84875945406981    5.01900442672234    2.00807745349654
H         0.03535416844281    5.48785742464614    2.57079211301394
C         2.07497013426797    4.96796007397856    2.92181782785792
H         2.91124477235154    4.48699027260842    2.42116960591836
H         1.84609252588438    4.40940146335878    3.82659017324039
H         2.37518712507893    5.97645205426775    3.20348727967236
C         0.39244125318221    3.61174876542617    1.61686766993939
H         1.18891654460143    3.06628416263931    1.11809276478125
H        -0.46353437975613    3.65850558087664    0.94598828445585
H         0.10440602175230    3.05470906849593    2.50573062947593
C         0.16074384098675    9.21161554225698   -0.75590404372462
H        -0.72031930694030    9.28029516230127   -0.10914411602840
C         1.14289327613631   10.30865362007984   -0.33540410932289
H         1.44357749193852   10.17060561493491    0.70219052986043
H         0.68132211384407   11.28835434034181   -0.43734089936231
H         2.03550567640939   10.27806983131494   -0.95551315865707
C        -0.31213332990610    9.42179211691668   -2.19502447118883
H         0.52785728935538    9.51818564057633   -2.87720334072384
H        -0.90237550596634   10.33338481082526   -2.25939760377054
H        -0.92916438461487    8.58712329333264   -2.52199325373041
C        -1.47080253394056    9.20284179153614    4.42317023135847
C        -1.51015635036885    8.48806399071124    5.62248037601056
C        -1.64761844638375    9.20449813890583    6.80307834948243
H        -1.66739250842988    8.68241481178876    7.74648411444543
C        -1.74832325196881   10.58250466930172    6.78721638753219
H        -1.85294811601527   11.12414975947645    7.71551004478897
C        -1.70286054455952   11.27094803162644    5.59059572759494
H        -1.76716685998583   12.34771172494298    5.59469987293034
C        -1.56317386805917   10.59513494385907    4.38605251787432
C        -1.34226192797110    6.98698333760608    5.64470244007790
H        -1.47723695645920    6.59529781699391    4.63108852725299
C         0.08258944020986    6.65172658003991    6.09477300746144
H         0.25763545996915    7.01361563292413    7.10494089278931
H         0.81064492237627    7.11964340808208    5.43365475902277
H         0.23980213700121    5.57559986163832    6.07908363269922
C        -2.37545501590844    6.30231977313335    6.54072160464697
H        -2.30768903367539    5.22300220996371    6.42298508260346
H        -3.38295317173277    6.61619847196601    6.27458011955051
H        -2.20678117331025    6.53590514834691    7.58819756566475
C        -1.47079005969605   11.35859595559535    3.08622648056210
H        -1.46756644170013   10.65087488119712    2.25119799192471
C        -2.66819615158825   12.29186690228443    2.89760180515864
H        -2.67711686274964   13.07685375864491    3.64875358238076
H        -3.60174949765236   11.73691264363624    2.96973430596156
H        -2.62081154243726   12.76170949214360    1.91769325273976
C        -0.15252681689510   12.13510463281674    3.04369527679817
H        -0.04776744728486   12.64670549495190    2.08967414352488
H         0.68870624336352   11.45477862201202    3.16811848886054
H        -0.11439883700609   12.87472913320403    3.83922707809948
C         4.44325567091203    8.09502889914048    1.53876305906449
H         4.50791891517814    7.08681708623535    1.94424144342096
H         5.22609456941866    8.21271271839306    0.78972706871503
H         3.47766372687301    8.19722434214120    1.04464944366277
C         4.60448629524615    9.12716906849472    2.65433494465436
H         4.55380914254802   10.12868692743113    2.20923589640762
H         5.60402097406237    9.01161050229474    3.07959568090741
C         3.51479344583322    9.03174706380432    3.72228231281821
C         3.87445517995136    9.21153693765819    5.00227048389897
H         3.10213817853009    9.18210630434616    5.76794933016179
C         5.24172715469174    9.50351778755121    5.57343920970642
H         5.26547678123506    9.18147164986479    6.61868471264352
H         6.01693081863478    8.94432922932912    5.04381259115782
C         5.57025309216554   10.99614046318945    5.50741642006041
H         5.57511562493291   11.33442803748280    4.47378402861080
H         6.54675593586754   11.19970900551889    5.94598320633938
H         4.82095249875662   11.57064294231945    6.04939317791754

