104
CSD_code = BIBREK | q = 0 | S = 0 | Stoichiometry = C43H55Cl2N2PRu | MND = 6
Ru        6.62630661793686   -0.08217599027162   10.96771131930183
Cl        4.54965445539072    0.96640803379323   11.53390957562930
Cl        8.65226693361618   -1.08813385381482   10.25130861926324
P         5.39030684611883   -1.54904778493738    9.54409730450176
N         7.10204960849275    1.69472179881177    9.59899677775190
N         7.67135428446778    1.14385879741015   12.27660742166574
C         6.31723566492260   -1.27284650949046   12.44847995989746
C         7.30055094932336   -1.74018150614236   13.31669182838952
C         7.07152799789973   -2.59882546232038   14.37325771793842
C         5.71330809712910   -2.87626940642043   14.84281928640055
C         4.79808746589304   -1.84285347561554   15.05407325458940
C         3.50745876618501   -2.12029611777574   15.46225251904847
C         3.10655743469355   -3.43055413149720   15.66547859647643
C         4.00912668079700   -4.46388368212631   15.46971568216271
C         5.30218436915634   -4.19135557212277   15.06748569302531
C         8.17160385420356   -3.28363795639898   15.03625565351566
C         8.08177609775683   -3.61913129293791   16.39179205349429
C         9.12257818076177   -4.26356781477614   17.02954430861002
C        10.27097706386669   -4.59801433234757   16.32910404695183
C        10.37039064795213   -4.27978756412379   14.98374632999056
C         9.33631307549348   -3.62795551660109   14.34194897320449
C         6.48217253816206    2.85505859374242    9.81940949748882
C         6.89034636742965    4.05031694886335    9.25387201958314
C         7.99570456119100    4.05777244993962    8.41855252747687
C         8.65104593099558    2.85757889098888    8.19795394538863
C         8.17418265870311    1.70905616881211    8.80604106367703
C         8.94362886084497    1.48659068502439   12.06315356119979
C         9.65394086999685    2.31630458276079   12.91104138568538
C         9.03084340689930    2.82485579784144   14.03949833459967
C         7.71159653913504    2.46510538535706   14.26714203271382
C         7.07473568582158    1.62727451838336   13.37106448923121
C         4.94632079736283   -0.80674760410171    7.88644887548312
C         6.17771836903320   -0.60659308797034    7.00267244331373
C         5.80730711002719    0.09262122500260    5.69618425551699
C         5.12031154092398    1.42742732602418    5.96076282081537
C         3.87433666989683    1.20741121410029    6.81114308481005
C         4.25307894272382    0.53577057560049    8.12599527535995
C         3.70535195991560   -2.07136112729630   10.20829650136864
C         2.57808976065158   -2.31946268917526    9.20155242413841
C         1.25308594824708   -2.46967033326646    9.95286602255169
C         1.30259333307928   -3.61519255681655   10.95771204236587
C         2.46944824898365   -3.41913232594269   11.91892474244719
C         3.77107075381022   -3.29126155769433   11.13222948938451
C         6.32111579620232   -3.08560556096696    9.02770708993037
C         5.62249281384410   -4.01806688706395    8.03988441757929
C         6.63610494120990   -5.02936146671459    7.50276137590361
C         7.26884216205269   -5.82674984980956    8.63978458364637
C         7.90971237047735   -4.89409409131217    9.66387512370011
C         6.87308973242144   -3.90731032864050   10.19476253346746
H         5.30445683074941   -1.60219305116627   12.69487612422687
H         8.33576702665840   -1.50188911762615   13.08711161045779
H         5.11492017728557   -0.81917134842916   14.91782934541614
H         2.81096057508838   -1.31018805153573   15.62085089911333
H         2.09570070271678   -3.64587905110833   15.97886209265576
H         3.70195431304488   -5.48741802842232   15.62952790629653
H         6.00135183089556   -4.99838680246727   14.90039768091358
H         7.19324498366031   -3.35084431700708   16.94538335487925
H         9.03961540102632   -4.50792803347380   18.07875986704651
H        11.08212879274376   -5.10709554879329   16.82837447777817
H        11.25891519231240   -4.54708968760807   14.43044861275462
H         9.41418571902045   -3.40909463779509   13.28762084385882
H         5.60986723053840    2.82238280923518   10.46311995645051
H         6.34241206830898    4.95502658434174    9.46553638523537
H         8.33645512014525    4.97127061623231    7.95410117546359
H         9.52008982611322    2.80329600389736    7.56108824207702
H         8.68539112631453    0.76357214838111    8.66624232653305
H         9.42339646417017    1.05552296322851   11.19309140992143
H        10.68153848263071    2.55429385634987   12.68503687218437
H         9.55641135666928    3.47684440379677   14.72038412646371
H         7.17585625652743    2.82772913870747   15.13024370156751
H         6.03717845433912    1.35215373892538   13.51956652033389
H         4.25698647439570   -1.48768041123681    7.37473947662365
H         6.63845721908428   -1.56644236335055    6.76417768994561
H         6.91224075099789   -0.00650617844440    7.54153894360837
H         6.70846569641534    0.24678184905418    5.09801372003963
H         5.13288964300385   -0.54906949037973    5.12266176625000
H         4.85397467779704    1.90444729313078    5.01483572319726
H         5.80766301776398    2.09328027207484    6.48962579707792
H         3.16788894442108    0.57770375328720    6.26342932091698
H         3.38395129317744    2.16175063721276    7.01425769837294
H         3.36834980820826    0.40794074352038    8.75193497186759
H         4.93413741991388    1.18863414120774    8.67242650875087
H         3.41952023765843   -1.20372672502054   10.81913601191466
H         2.46856316376447   -1.49237876569059    8.50258649372041
H         2.77641108469713   -3.22787171405404    8.62848587268479
H         0.44600531299058   -2.63934565028614    9.23586924305099
H         1.04089890565600   -1.53765163245258   10.48136868651320
H         0.36203282736096   -3.66584094120158   11.51014804622745
H         1.42762926225151   -4.56166584757728   10.42517447857357
H         2.53679428941822   -4.26283349106182   12.60990507356676
H         2.31327834359366   -2.51581080902196   12.51220032196831
H         4.60933267398003   -3.21903148459136   11.82333687643032
H         3.90079242485055   -4.19553464530544   10.53436234271325
H         7.20009224740570   -2.65046130934610    8.52978042149692
H         5.19279214523273   -3.46335200306364    7.20439807092715
H         4.81445160856876   -4.55509859592034    8.53939796041599
H         6.14404733091074   -5.70838158459959    6.80174876818867
H         7.41955828133835   -4.49731652965145    6.95763343241326
H         8.01734481322040   -6.51269816060378    8.23717618511192
H         6.49855677574865   -6.42607630206134    9.13210502062250
H         8.32130000409341   -5.47742583253163   10.49047455731207
H         8.73055166564494   -4.34182668778052    9.20248087375429
H         7.32956783525422   -3.24350860074202   10.93190515191183
H         6.08169212856778   -4.46822307766172   10.68946208195315

