79
CSD_code = BIBTOX | q = 0 | S = 0 | Stoichiometry = C35H38N2O3Pd | MND = 4
Pd       13.16140662372365   17.10983842021353   12.36279741907805
O        14.66338242693890   15.96547189998527   11.87988627729674
O        12.87579226820281   15.86005697144091   13.95539361519150
O        11.73020104614181   15.04740246662107   12.25662851667048
N        13.37428841203078   18.23931703015510   10.79345773469082
N        11.72242313929888   18.27544517808775   12.76151405050159
C        15.49161548341775   16.15834366997808   10.91592444147867
C        15.41594263277538   17.20242091448387    9.93499961541528
C        16.50336007378814   17.36406713611737    9.05433299988695
H        16.51725637755992   18.20655995961268    8.38019072729398
C        17.57764482318206   16.51388379463168    9.04754307599718
H        18.39676722252983   16.67806923471747    8.36425546026032
C        17.60008789367520   15.42655806814705    9.91859402626142
H        18.41673815647857   14.72039958830624    9.87677795508740
C        16.59017087207286   15.23738837717232   10.83084564971490
C        16.62389773041959   14.09371176563587   11.75824003337124
C        17.80621066289302   13.75375903591377   12.41127361603229
H        18.69091699270340   14.35513002136716   12.25611164766252
C        17.85097624417435   12.67343044976861   13.27283583733320
H        18.77452657202015   12.42569169827025   13.77703090212895
C        16.71508822549383   11.91343087078784   13.49415165239298
H        16.74940656010340   11.07025290144106   14.16925163123909
C        15.53509973670787   12.24178732905800   12.84745627851906
H        14.64610084792983   11.64979103822941   13.01291159009028
C        15.48636567549787   13.32193560997102   11.98666026757811
H        14.56200502009481   13.56774451496665   11.48628817645020
C        14.27011538800742   18.08728629846064    9.79569673475882
C        14.04839259343502   18.79123299475034    8.59499293068343
H        14.69711554855972   18.62594391459445    7.75213725615044
C        12.98754561050082   19.66221551964276    8.45981270620522
H        12.83537724818386   20.19114973627829    7.53129985935622
C        12.10978962224380   19.83605733740417    9.51858358092743
H        11.26479787012310   20.50206952788299    9.45302065805057
C        12.31852564089677   19.08190027012199   10.66669291719645
C        11.44583731930832   19.10223879048409   11.80661694002607
H        10.61489616782978   19.80202770499109   11.86164587139845
C        10.96137480671169   18.13741201628919   13.92425214877656
C         9.63027073927022   17.69872707424334   13.86339000862356
C         8.95052181428160   17.50766460569805   15.05817378717484
H         7.92823504254068   17.16073206321226   15.02714433076834
C         9.53822604089692   17.74366447272929   16.28951085460917
C        10.85740384946823   18.17533220102931   16.31952498465441
H        11.32825492246624   18.36306586066836   17.27103986910447
C        11.58926291118355   18.36692494111804   15.16163311296085
C         8.94162041234844   17.37229592509168   12.55730582532074
H         9.63169213075707   17.54331217160629   11.72471876703083
C         8.55667273103508   15.89188095953755   12.50652772298806
H         8.02062623080480   15.68262857309509   11.58338983227605
H         7.92300353386010   15.61428128431342   13.34472795180432
H         9.45801910369537   15.28399466100916   12.52463489669084
C         7.71864567885154   18.27183488470313   12.35507458085084
H         7.27810729945275   18.08857924831624   11.37760161422726
H         7.99587983349643   19.32293728300476   12.41789060106032
H         6.96340393500300   18.07535303260892   13.11163120397949
C        13.01452334514914   18.87478839557530   15.24042061934125
H        13.48463187479743   18.81594717551084   14.23753682469488
C        13.86721273697311   18.01030898477495   16.17149165134743
H        14.89827178066755   18.35616523930024   16.15196522267029
H        13.83835620333918   16.97989510644760   15.82508355216725
H        13.51294473354990   18.05358427109807   17.19817658678351
C        13.01646908601318   20.34110934587252   15.68351250443595
H        12.43376211411932   20.95199289824653   14.99637481953140
H        14.03368215346047   20.72488340185055   15.70956091976947
H        12.58552344018672   20.44075229942631   16.67724654940157
C         8.76441637339346   17.51304451408355   17.56403403024993
H         7.73972531136528   17.23276663045456   17.29559485348699
C         8.70085181999996   18.78340068317690   18.41407723739601
H         8.07209029590981   18.61930220851683   19.28638530587838
H         8.28401178466639   19.60563120916535   17.83653420335912
H         9.69079247891375   19.07178902991515   18.75757251451883
C         9.38205202795712   16.35848664742139   18.35639337818054
H        10.39821711452703   16.59848049761678   18.65841636175591
H         9.41079724215807   15.45695656698691   17.74876320694741
H         8.79469943420623   16.15679445530622   19.24953351033913
C        12.18882507660009   14.94955697583885   13.40520111222995
C        11.90105888830630   13.71570120917858   14.24522618049353
H        11.35598933914835   14.01383837489374   15.13798470541423
H        12.84415203391953   13.27003442223334   14.55110205783115
H        11.31725756562980   13.00205815913547   13.67208734649354

