73
CSD_code = BIBTUD | q = 0 | S = 0 | Stoichiometry = C33H35ClN2OPd | MND = 4
Pd        7.04999153962154    3.21831792227761    3.60650294939756
Cl        5.72106415836443    3.71598343915929    1.87760685429024
O         8.37377243005113    4.45775952640491    2.85580263899202
N         8.19688158759170    2.84501266744117    5.19143749510291
N         5.87235437782685    1.99854840884946    4.47266574547238
C         9.59674307987602    4.59328149826462    3.23667681218712
C        10.16096095133434    4.09367224556487    4.45768836718067
C        11.54182290216788    4.26845183529667    4.67544752706479
H        12.00047958615513    3.82145499020101    5.54385175888033
C        12.34469148247023    4.94429555094772    3.79578860789713
H        13.40035652487834    5.04998963604932    3.99389656214855
C        11.79080078141379    5.48996806280031    2.64024687877375
H        12.41421056293003    6.04969205729841    1.95816072673376
C        10.45698629007827    5.32610367972579    2.35130097642160
C         9.90126138223138    5.86948693076176    1.09982473367194
C        10.59821626441868    5.70298937158434   -0.09508915434313
H        11.52906705542802    5.15312904280123   -0.09545500870799
C        10.09707990734891    6.20774191016167   -1.28010570924538
H        10.64649240535442    6.06435743273725   -2.19996422846926
C         8.89067111282185    6.88713217007270   -1.29091494295993
H         8.49546156688937    7.27581438672767   -2.21833764440852
C         8.19148111158890    7.06020945570987   -0.10853304781892
H         7.24780729488415    7.58569796564778   -0.11087889215420
C         8.69126949469081    6.55824833763608    1.07827606565241
H         8.13976768246529    6.70151772008619    1.99459180075916
C         9.39224659160443    3.39954978722093    5.47693529512471
C         9.87281296201000    3.28564274979069    6.79809224403260
H        10.76549949519296    3.81235594664310    7.08882325502282
C         9.20107653103278    2.53537285490782    7.74003213278704
H         9.58886767449814    2.45305015503670    8.74399029511819
C         8.02015548384398    1.89688005845585    7.39073323799610
H         7.47241352384138    1.28884921581374    8.09219692563453
C         7.52641307961427    2.10587809683842    6.11001271389564
C         6.27112338171350    1.59258783078405    5.63384268932111
H         5.69035579270507    0.89263198168090    6.22992049859165
C         4.68281780985993    1.52618410998328    3.89027778364680
C         4.68132713655224    0.29400482313119    3.22450873908055
C         3.50140898488364   -0.11196928016909    2.62174054127697
H         3.47362666404949   -1.04720971482638    2.08571620719781
C         2.34615856784205    0.65349530209652    2.68202607948385
C         2.38536175267888    1.87354971655016    3.34007284526446
H         1.49679804569787    2.48141362808590    3.37928970038182
C         3.54591246121919    2.33971002532208    3.93292722315311
C         5.96402762467029   -0.50632080726824    3.11862796012104
H         6.49655545099312   -0.43869012652190    4.07637027645105
C         3.59970219965896    3.68148374899008    4.63086728594503
H         4.65855482450779    4.00644321308346    4.68387556127221
C         1.07897466014968    0.17083285649275    2.01994624783908
H         1.28016588385398   -0.80734064847729    1.56924691862232
C         6.86043068630880    0.09825779337516    2.02749777177237
H         6.32193818265620    0.13626777687394    1.08348762439603
H         7.75404584678225   -0.50971865217953    1.90000511277885
H         7.17566276751147    1.12896313531187    2.28065870923797
C         5.72997274814991   -1.98950091310544    2.83296661230391
H         5.00889693313604   -2.40946689432250    3.53068809098482
H         6.66633849579844   -2.53330380936293    2.93870635976798
H         5.37013248599712   -2.13977108016877    1.81871669259059
C         2.84886900595605    4.76128601254451    3.85381437149653
H         3.20419278648479    4.77598864169072    2.82688588358132
H         3.03797948732074    5.73407027801483    4.30226035876090
H         1.77563037907907    4.58995289001231    3.86246931954535
C         3.05787081601710    3.54883372369898    6.05700559594567
H         2.02337701825663    3.21210785644923    6.03554080060258
H         3.09851917624695    4.50819716490199    6.56797901661554
H         3.63977980621160    2.82810639621584    6.62941235731631
C         0.65689732539737    1.13091082116241    0.90589988554715
H        -0.20348464374747    0.73355743504663    0.37166326983369
H         1.47248573204082    1.27073704684435    0.20071498441074
H         0.39022704163643    2.10238766340446    1.31328671081486
C        -0.04416425929410   -0.00158642421650    3.04496116206458
H        -0.30507513568771    0.95169490996086    3.49732276211424
H         0.26346548357965   -0.68382738405434    3.83473868031287
H        -0.93223628140442   -0.40628615595389    2.56455733741189

