75
CSD_code = BIBWEQ | q = 1 | S = 0 | Stoichiometry = C37H30N5O2Ru(1+) | MND = 6
Ru        5.10134356050507    5.88550752951352    2.06863776806074
N         6.37251712895433    6.13684262499997    3.66457079963623
N         6.61690293997709    5.57059869639064    0.81401809975698
N         4.06615232798187    5.38129263126480    0.46515968745388
N         3.54118539004574    6.07469746088243    3.24877473832233
N         4.75346839349910    7.82065825120920    1.84301747920516
O         7.97616243321756    5.53894303839104    5.10573330250514
O         5.26537139938728    3.82012373778250    2.29208091316279
C         6.70607933993830    7.37234155260898    4.35968117966510
H         7.03625247002956    8.13277368005325    3.63823949120389
C         7.86551625846902    6.93925777698304    5.29089488756702
H         8.81822895324787    7.40706929826135    5.02574998719798
H         7.64882376678039    7.14178796431309    6.34329409230554
C         7.09192915260284    5.15948754985132    4.15835120231357
C         7.06654143951411    3.79635297967942    3.82688632408931
H         7.80629795741980    3.19243747380268    4.32248359278311
C         6.17131891727417    3.20564863455212    2.94815955045374
C         5.52505081381319    7.90538376805939    5.13624821431567
C         5.15542560085914    9.23950400342797    5.04123869702221
H         5.70981090689938    9.90454368238750    4.39383293405947
C         4.09097881742351    9.72333523379102    5.78209310016369
H         3.81713217645980   10.76497103398375    5.70909570230482
C         3.38945505302115    8.87739662213277    6.62359987805590
H         2.56523699622019    9.25656081816190    7.20804127797503
C         3.75627626225074    7.54545808660147    6.72543430335504
H         3.21892220806201    6.88503087156515    7.38907337533254
C         4.81954506701957    7.06101816433109    5.98615957875970
H         5.10963845441309    6.02278827907494    6.07159857511213
C         6.24728945288738    1.74068673646861    2.71620341916256
C         6.66949809168295    0.84604855638425    3.69620465051742
H         6.93575016344745    1.20449405247727    4.67847164179091
C         6.72039379039761   -0.50890448459717    3.42503896330304
H         7.04466987734046   -1.19598381720867    4.19192954990789
C         6.35328060541092   -0.98800606972299    2.17796066192271
H         6.39828029624503   -2.04621292789235    1.97047975035577
C         5.91964976473356   -0.10629348024555    1.20147742785249
H         5.62494746843581   -0.47626138131271    0.23065113056302
C         5.86058912027440    1.24717411036851    1.47116430662160
H         5.51806824400021    1.94373538507213    0.71868013954998
C         7.91483135467528    5.80049346036760    1.01075615027687
H         8.16470584527376    6.48992337579646    1.80736644658045
C         8.91008429739453    5.20036706133943    0.26494161867393
H         9.94563317524528    5.41179115531297    0.47480078027679
C         8.54795230956214    4.31352189858933   -0.74243991659772
H         9.29824281592140    3.80967509366085   -1.33018135027651
C         7.20507507891796    4.09730137494005   -0.98200964480695
H         6.89925357859935    3.42177700194554   -1.76357130557249
C         6.25107613159156    4.74432543826636   -0.19541193219863
C         2.74904015547351    5.45700362095752    0.27180701461718
H         2.18921555260951    6.06470932647782    0.97361540782328
C         2.09852799385948    4.80673644047741   -0.75706550271099
H         1.03022063119951    4.89848023384600   -0.86436586595270
C         2.84396957353174    4.02531629397662   -1.63357493573440
H         2.36592275909081    3.48648263573059   -2.43571141785624
C         4.21212406063648    3.96269422516331   -1.46058152985580
H         4.81484411102479    3.37656214341758   -2.13454289698168
C         4.80855803111835    4.65814306161052   -0.40738508834126
C         3.00344928811909    5.08514714445656    3.95941443167907
H         3.49830294385476    4.12425041547048    3.88239674445539
C         1.87651865456221    5.25160483929907    4.74015734970471
H         1.47744613283634    4.41906739730006    5.29617461427628
C         1.27157143663463    6.50238184404851    4.78941585421653
H         0.38809256426934    6.66488670021980    5.38553315016051
C         1.82555385630685    7.53624564661935    4.05875183146522
H         1.37958706676871    8.51638240142700    4.08078037179399
C         2.96614692087431    7.29874362606516    3.29335709806077
C         5.46470382854976    8.66812621582219    1.09437600323598
H         6.33533211733967    8.25333373785021    0.59971877505543
C         5.13586588253224    9.99934371204496    0.93989965065234
H         5.74680715254065   10.63860976982673    0.32368099283324
C         4.00754961714836   10.49322033784440    1.58679691208884
H         3.72023789125387   11.52704732692269    1.48361447298932
C         3.26441365666926    9.62802930257836    2.36532253353914
H         2.38723732022252    9.97946286706603    2.88215149836356
C         3.65692515365793    8.29552474940689    2.48500131038617

