63
CSD_code = BIBWAM | q = 1 | S = 0 | Stoichiometry = C30H24N5O3Ru(1+) | MND = 6
Ru       13.79690336396412    8.83683831700811   10.23416624494054
N        15.13230226527664    9.18880947000271   11.75726298110926
N        12.34413856148838    8.89607910924662    8.90200243067820
N        12.22979431654953    8.90822021165636   11.48210076126549
N        14.14671456848841    6.89818634836655   10.05296183435868
N        15.25593720489046    8.88923937468461    8.91875418811804
O        15.94409709496636   10.73216776158021   13.12318338716583
O        13.61014702378565   10.93557675488860   10.43816555813073
O        14.01877606418604   12.53672787492711   11.93271324358698
C        14.15318045797038   11.43191191076593   11.47040449331682
C        15.11344872015471   10.41052691313649   12.15681184985552
C        16.67686384552847    9.55374760011003   13.47731954237450
H        16.46754816183141    9.32142451465920   14.52378182060245
H        17.74337677042420    9.75955476142780   13.36047826200759
C        16.16489453536556    8.46687349309434   12.49884294942903
H        15.71098851426559    7.61952764393425   13.02670438062856
C        17.21201880021053    7.95671133782421   11.53881144514555
C        17.45732279539222    6.59645804209463   11.41493983278423
H        16.90199745430581    5.89330879705078   12.01915141439152
C        18.42236131586419    6.13994486978100   10.53379851079449
H        18.61711047543988    5.08130416990820   10.45550499493219
C        19.14473434721866    7.03895733423590    9.76835548135899
H        19.90609419483518    6.68404725516244    9.09107235613874
C        18.89757542378296    8.39729381438646    9.88145277146079
H        19.46248563332006    9.10221610108187    9.29093648553549
C        17.93319006433026    8.85560624080411   10.76023597889067
H        17.74592387410825    9.91730104107829   10.84528445162259
C        12.43442600165818    8.72877368276548    7.58224487642102
H        13.35692983714002    8.29905758045579    7.20836260976700
C        11.42156387188796    9.07080580677615    6.70715948342577
H        11.54974695351151    8.91851543776269    5.64802923652451
C        10.25200073526579    9.61886550739792    7.21783437512279
H         9.44723429070849    9.91262215011241    6.56340434562282
C        10.13811352899615    9.77225654787189    8.58678103393132
H         9.23653798981092   10.18170379706434    9.01062289728844
C        11.19671409881846    9.39915876576810    9.41321072829179
C        12.24870270686778    8.83999201107598   12.81153314500840
H        13.11560292766640    8.36564180236470   13.25600321923797
C        11.23285268425508    9.33579213752762   13.60784646900294
H        11.30300376928720    9.26568442375772   14.68093467466955
C        10.14159370924494    9.93759532686525   12.99655191051815
H         9.34394868279879   10.36134159057052   13.58521819743488
C        10.09547402809632    9.98138169577914   11.61484963569315
H         9.25850267982107   10.44236721353747   11.11789988779192
C        11.15153379847726    9.45275828334645   10.87542087710266
C        13.53265558508439    5.92230835054157   10.72795304545242
H        12.74634116103309    6.23296175883057   11.40584565599630
C        13.85641113059985    4.58791991275060   10.58765588888526
H        13.32888631992685    3.84169134054951   11.15894326842008
C        14.86461900588271    4.22938508238792    9.69909408665282
H        15.13951492031077    3.19587225563806    9.56410622721817
C        15.50565638875390    5.22844992597012    8.99277239566045
H        16.29263039752858    4.98490022597130    8.29894101460279
C        15.13472589177663    6.55799771276817    9.18615129654587
C        15.74121258856842   10.00730420819755    8.38292336666928
H        15.29474257353361   10.93221633016059    8.72976518117935
C        16.74045674138531   10.00284716140925    7.42844107786894
H        17.10074973218738   10.93321705453085    7.02100888013182
C        17.26057046059650    8.78490625372204    7.00583234526777
H        18.03722317568890    8.74702610971488    6.25896081674204
C        16.76124970305446    7.62005791073319    7.55823921372908
H        17.14356728897021    6.66277200667581    7.24602091582410
C        15.75397879286878    7.69679157575728    8.51844006967276

