46
CSD_code = BIBXIU | q = 1 | S = 0 | Stoichiometry = C12H24AgN6S3(1+) | MND = 3
Ag        1.27009820624166    5.92513619909363    6.77818621316297
S        -0.26866331077862    4.85827392277608    5.14957795993292
C        -1.17622027945075    5.99681767547010    4.28425152503149
N        -2.03817102771679    5.52579650773803    3.38450655029482
H        -2.07165552395662    4.52468426582729    3.26810681857270
C        -2.90557541374941    6.36507985360729    2.58466404766407
H        -3.83108700723718    5.82142149342620    2.38772321974552
H        -2.42657564309631    6.58876852558169    1.62389880519172
C        -3.18622181542263    7.65408554039285    3.34924899067301
H        -3.76419966807270    7.42512626929088    4.24567195128230
H        -3.75840762030959    8.34264011238197    2.73107776364226
C        -1.85761758765359    8.28416395501167    3.75163443515095
H        -1.31268079931775    8.62076486075438    2.86151505062341
H        -2.01490914746321    9.14352903345590    4.40544829741181
N        -1.06353859021267    7.30800587799888    4.47135155501501
H        -0.40051461445204    7.64060582314704    5.16252080855151
S         1.05628736952038    8.81213975102105    6.71813641787052
C         2.65638412095969    9.32475579232195    6.48567763472677
N         3.68108467763209    8.66548750299887    7.00690095039924
H         3.49677604889031    7.79279411987807    7.50169527957423
C         5.05776908442793    9.08160631367989    6.82925068738823
H         5.48017810126593    8.59790652163425    5.94089742844031
H         5.62672243520244    8.75218550635192    7.69994367208662
C         5.10733575997854   10.59866702342135    6.68360847679246
H         6.12241670304883   10.92342046685110    6.46545621345649
H         4.78522149910906   11.06341821022929    7.61686082203039
C         4.16721609464638   11.01687533586772    5.55798778193509
H         4.07305842839705   12.10325934489321    5.51454601585993
H         4.54963625643011   10.66500035363037    4.59252094258456
N         2.85584033829728   10.44927620120988    5.80123007646999
H         2.04006807265573   10.92018078857796    5.44137995190854
S         2.92750132425819    5.93478763730433    8.72838952285382
C         1.99944706328894    6.55065309567747   10.01485810182771
N         2.25789211329008    6.08959277969905   11.23482316071835
H         2.94930598226380    5.35885922159713   11.31169908347771
C         1.57962166441655    6.55117916285808   12.42899449494799
H         2.27404639348320    6.48930981447890   13.26860028002974
H         0.72182398342034    5.90292863134329   12.64313380161456
C         1.11737885322026    7.98788458017942   12.21124008478324
H         0.51582393159733    8.32121839885158   13.05416208589237
H         1.98808750240533    8.63970159036676   12.12421554243441
C         0.30413056022805    8.05346458894206   10.92279481781723
H        -0.62876586570811    7.48866435683669   11.03224601414914
H         0.05267029894662    9.08454772643418   10.67024803602289
N         1.08730191236119    7.49914075325084    9.83545825260066
H         0.94067913474351    7.85709451369967    8.89276037732732

