49
CSD_code = BIBYUJ | q = 0 | S = 0 | Stoichiometry = C20H24AuClN2S | MND = 2
Au        5.61691530879429   -0.70723022488554    1.28769198318008
Cl        6.76499127952335   -2.51110984226843    0.60369031499372
S        -3.20890711273401    6.47296261611724    5.94413904571776
N         3.38093257940182    0.90281849227320    2.49061079923205
N         4.97590203279544    2.19054079976023    1.75694354725968
C         2.97924584859068    2.19667805615427    2.74823853075630
C         4.01183107040812    3.02904108757183    2.27360634319920
C        -1.18339190888430    4.71747167692840    5.72233078300463
H        -1.63366905711293    4.28821148072349    6.60441731213801
C         2.65332546148702   -0.31370298267484    2.80179264865719
H         3.30231164079204   -1.12849184228510    2.45534636365916
C         1.73571076238000    4.11256843449822    3.43351950810952
C         3.90988368680348    4.41017109226778    2.38456040448891
H         4.68726799347772    5.07084581219618    2.03837721405498
C        -0.05487242414051    4.15661505038332    5.16767911613915
H         0.38994742697262    3.28963777357678    5.63353185161165
C        -1.76112181911285    5.85096896137920    5.15246141035399
C         0.53682732493005    4.71365741208695    4.03321056237612
C         2.77176076757854    4.92993463339354    2.96081849208109
H         2.68098845802631    5.99961279160236    3.07123259519542
C         4.58734274513007    0.90799549031425    1.89134897487229
C         5.99608512448068    3.40149400200880   -0.11721658295506
H         5.34946204369682    2.85470620882928   -0.79979969593952
H         6.94507865176352    3.58184358981571   -0.61401636522950
H         5.53479132260870    4.35936298142278    0.10531157505950
C         1.34107620607145   -0.37994303084577    2.02410101237652
H         0.64941340821014    0.39840792251650    2.33345255955977
H         0.87178686954330   -1.34539943784888    2.19034654430762
H         1.53336169365162   -0.27033536808945    0.95921982903961
C         2.45652611559258   -0.46240573859768    4.30855008767133
H         3.41454565409481   -0.39136537194379    4.81864641777818
H         2.02584226428304   -1.43662779288398    4.52153055288139
H         1.79431682628849    0.30161353144524    4.70518423559086
C        -1.18162291233308    6.41473923009449    4.02391992823272
H        -1.60519594989629    7.28985321019284    3.55786320617842
C        -0.04429633692073    5.85020473049198    3.47854230716215
H         0.38373311332647    6.28928402502056    2.58923595973396
C         6.23397240669880    2.58103359735023    1.14823253880880
H         6.71662362401577    1.63713296604694    0.86342060192324
C         1.84028736256512    2.73170820956512    3.33021505938396
H         1.03261848522009    2.11037906937923    3.67922380579523
C        -3.69302738288604    7.89640100008739    4.92703976659406
H        -3.90749064167678    7.57268959635615    3.91271569387727
H        -2.91268883977047    8.65159562772565    4.94625512939183
H        -4.59511547622069    8.28837449077053    5.38647233778550
C         7.12995979314797    3.29540364454368    2.15714496008489
H         6.71091789414869    4.24985213778841    2.46251902396550
H         8.10485786914906    3.47240357455396    1.71196945617640
H         7.26335874604879    2.67599662508601    3.04117225368316

