39
CSD_code = BIBYOD | q = 0 | S = 0 | Stoichiometry = C14H20AuClN2S | MND = 2
Au        7.05548964051127    3.43745155122919    0.85790702306468
Cl        7.04045130786203    1.43648029049376   -0.16036200258565
S         6.11595774481502   10.13845545695972    5.53156792041640
N         6.28258828448173    5.59191924887985    2.80728113827042
N         7.88166750862934    6.25791728582812    1.48811360773186
C         7.07109892672905    5.22353214102688    1.77653883620003
C         6.58831089056050    6.87872885936681    3.19298023575152
C         7.62059982625512    7.31022593489744    2.33930169776512
C         6.08074139387775    7.70241893945469    4.19027118377597
H         5.28909410698703    7.37124607441464    4.83804853598761
C         6.63094548580924    8.96543288463930    4.31816226071223
C         5.59320075413262    4.40370093517983    4.84335767954260
H         6.60177299799489    4.00590585511771    4.92601184393913
H         4.89794765040526    3.65381269224215    5.20913671798255
H         5.51509700284084    5.28331047859582    5.47553396888800
C         5.27496197210147    4.72110725081669    3.38417771455782
H         5.34289890656342    3.78986940420286    2.80697600275065
C         8.15727952926529    8.58667677124139    2.47238981454001
H         8.94499114082622    8.94785465559676    1.83313651223702
C         7.65439405058739    9.39697842840091    3.46244250750225
H         8.04756999539404   10.39205580720300    3.59933254857134
C         3.87569597917133    5.30187859336472    3.19414579327023
H         3.74145411323960    6.22435830543578    3.75153754414728
H         3.13668015612106    4.58229661791594    3.53388335600516
H         3.69758279462874    5.50537279029204    2.14102785866800
C         4.95199643340702    9.21534339659624    6.57423275231817
H         4.06333228188279    8.95303890466273    6.00748892324787
H         4.68452549223833    9.89326430930557    7.37862705010044
H         5.43953812738011    8.33546333689259    6.98336593582688
C         8.87501355214579    6.22078365418257    0.43064775768310
H         8.78074648880020    5.22045622420854   -0.01118479589481
C        10.28371929013493    6.36472132742156    1.00174880359359
H        10.44580762719723    7.35025184820353    1.42880041817581
H        11.01159756559363    6.20660839228745    0.21099269358834
H        10.45034821790981    5.61866967419483    1.77574680840329
C         8.56433943492450    7.25615017820653   -0.64757959432139
H         7.55493986516150    7.10909361388256   -1.02537528852999
H         9.26027790031988    7.13766390327134   -1.47330372100558
H         8.64854556311428    8.27040398388779   -0.26760804287768

