75
CSD_code = BIBZAO | q = 1 | S = 0 | Stoichiometry = C38H32N2PPdSe(1+) | MND = 4
Pd        1.94714073331774    2.86517260341624    3.58469054722079
Se        3.26799461790056    0.80517533068568    3.71753632531425
P         1.36432930259228    3.05247189070111    5.77101176927237
N         2.12916808797128    3.91922727742837    0.96739631382984
N         2.50577947761395    2.92722428849070    1.65763713016269
C        -0.63423559818645    7.87406645857267    3.84941512069289
H        -0.83136003599258    7.56510286267059    4.87253672011800
H        -1.57804181157756    8.12224533265106    3.36614821059721
H        -0.03076272674650    8.78132662872152    3.86731191454344
C         5.28183387167524   -1.38493573274978   -0.78174166501040
H         6.27108219739333   -1.05673158046488   -1.10024332689255
H         4.75087056952658   -1.72638120335776   -1.66840274136046
H         5.39909336899390   -2.21849153328743   -0.09524423399489
C         1.13820535453896    4.62774898679024    3.03643824467739
C         1.42467731269749    4.84641419566631    1.65954611518602
C         1.00527101529602    6.01956013278893    1.01124912545643
H         1.23308628408402    6.14262922627212   -0.03576849817929
C         0.32948161958456    6.97969502251118    1.72127714628091
H         0.00160204465068    7.88458103202754    1.23257176528962
C         0.07179242306272    6.80650463324873    3.08467738465716
C         0.48720760996408    5.63375327432069    3.71930529115685
H         0.28671426266582    5.53239221874841    4.77946301321694
C         3.19812944840848    1.90309218385157    1.03569548791324
C         3.60611007936754    0.80426854638125    1.80427776718714
C         4.27717498819709   -0.25450857805221    1.22251287718503
H         4.58847971748510   -1.08545672731152    1.84049328479855
C         4.55303403407943   -0.25230693619638   -0.14175565723175
C         4.14573131113339    0.84516005493836   -0.90421539013742
H         4.36074798731967    0.85868213453378   -1.96194220106000
C         3.47875006000308    1.90610269149781   -0.33627003609675
H         3.16074955808662    2.75388401527586   -0.92362654457611
C         1.43001748302142    0.16122712622433    3.71869477971688
C         0.50211977133917    0.56137432215708    2.75406836874157
H         0.79115334973053    1.12753574255843    1.86717403198425
C        -0.81205273611206    0.12718009322146    2.86404761931931
H        -1.53032463927780    0.42545969333575    2.11463062167036
C        -1.20283924759914   -0.68055514711960    3.91957450081775
H        -2.22875525788581   -1.00444094854433    3.99754506833807
C        -0.27090848665120   -1.09074360650265    4.85808342514743
H        -0.56259544014129   -1.74240215229355    5.66696322905400
C         1.04588905866988   -0.67656911836068    4.75849235245923
H         1.78144586344192   -1.00516270911560    5.48009932621500
C         1.60978179922364    1.63601712852350    6.88470707951514
C         0.55452121994995    0.96662036354770    7.49283900293759
H        -0.46189067134692    1.29496736306878    7.32787191090529
C         0.81220965810994   -0.12002327319564    8.31148068970072
H        -0.00760942273058   -0.63405956659992    8.78996946567043
C         2.11340631919767   -0.54711091767067    8.51811507077491
H         2.30806784781239   -1.39471935875939    9.15699357989681
C         3.16842987292400    0.11323390782610    7.90496595634769
H         4.18298282004251   -0.21811122277951    8.06608713088884
C         2.91865970477537    1.19920466180814    7.08814006947676
H         3.73944470715894    1.72866327783111    6.61368847177910
C         2.45354190362824    4.29225134460834    6.53155284604286
C         3.32640533161773    4.98984662900728    5.69743301476309
H         3.32569137818050    4.79198765453790    4.61729174687025
C         4.19795317997674    5.92128556288417    6.23246441041193
H         4.87235654692126    6.46285026260800    5.58654925612048
C         4.20906240889360    6.15344255120118    7.59867546787730
H         4.88652071259443    6.88275388715730    8.01527164165212
C         3.36697170825637    5.43656567655321    8.43464003545056
H         3.39578662724027    5.60176649750552    9.50096192731359
C         2.49641171455867    4.50016197430268    7.90808869105995
H         1.86851971724905    3.91290745179216    8.56391925629871
C        -0.37829288970148    3.49687772967827    6.03084100182326
C        -1.24951132657370    3.08896767489637    5.02238717319898
H        -0.84246173427317    2.58703181860969    4.14387091917343
C        -2.60308391090301    3.34401699122111    5.12888228999875
H        -3.27719980381428    3.02567102681461    4.34839368376652
C        -3.09052595031789    4.01954323302181    6.23739554146949
H        -4.14642921979705    4.22562988017279    6.32111208127290
C        -2.22427567462512    4.44062473844445    7.23364722634981
H        -2.60593013636344    4.97627224289641    8.08959827961723
C        -0.86799213237730    4.17963370647044    7.13796276948258
H        -0.19600918912523    4.51875707570507    7.91194772838420

