66
CSD_code = BICCIB | q = 1 | S = 0 | Stoichiometry = C20H40IrN2P2S(1+) | MND = 4
Ir        5.66919307064309    9.07054536680033   10.91079497445484
P         7.16304227680543    9.07053001335625    9.06312963799629
C         8.70687926223480    9.07048251652972    9.96870694951734
H         9.67315206970394    9.07040102699705    9.49129753818103
S         2.89201722231583    9.07044339321431    9.23759947115114
N         7.35728730310218    9.07064019742920   11.92947042802688
C         8.57780297407553    9.07047444852245   11.30841074375202
H         9.45649902718034    9.07037050609236   11.94814001762140
N         4.18110550166919    9.07097284435332   10.01455786674912
P         4.72804034111192    9.07052320379457   13.09354687917940
C         7.37510834142494    9.07048139922147   13.29837640345581
H         8.35005814104142    9.07035212213814   13.77898081624996
C         6.24930970822741    9.07047816247713   14.03650990384800
H         6.27725352829701    9.07039370907105   15.11377187871735
C         3.86220160812867    7.46993826182306   13.58949586871554
C         4.82795679438471    6.38031787365443   13.11351320407876
H         5.01847651879240    6.47822333252207   12.04224281246748
H         4.40043674184979    5.39618152867414   13.29267318047146
H         5.77717346716312    6.43994538021326   13.64330137354745
C         3.64601081110249    7.34521087482207   15.09362269722615
H         2.87281019061156    8.02173132634562   15.44559189001394
H         4.56199103493521    7.53857327954965   15.64622207915284
H         3.32505816413486    6.33087147848639   15.32480899772950
C         2.53981906935712    7.32923217931659   12.84029128835569
H         2.67474986075267    7.52288403096219   11.77697097956304
H         1.78561564005833    8.00819030038850   13.22761340514960
H         2.16102684272125    6.31529629915764   12.95504202371246
C         7.20151223044396    7.46914569319270    8.06784147574492
C         7.32470213008271    6.38301606175664    9.14098655486138
H         7.23239662383359    5.39788064551522    8.68895322100391
H         6.53510293108530    6.48937349177804    9.88887463554319
H         8.28820030494637    6.43791092360335    9.64405396983353
C         5.88350647214926    7.28797937173886    7.31972450818544
H         5.78058956171117    8.00412668178448    6.50919394541443
H         5.03780281921051    7.39971758602871    7.99697453534770
H         5.84260815063042    6.29021836096692    6.88678492320467
C         8.38325701943321    7.38139167749136    7.10826028169380
H         8.48056169661409    6.35607578540037    6.75533609923202
H         9.31582229309632    7.65525886383965    7.59548098544373
H         8.24068723786397    8.01539750945875    6.23828431804317
C         3.86223975011978   10.67110642286200   13.58949863512151
C         4.82798935556350   11.76056656423434   13.11317211179085
H         5.01829453222167   11.66252957419800   12.04187278297990
H         4.40052651810134   12.74473470941650   13.29229967268180
H         5.77730521828559   11.70095983937094   13.64278810304297
C         3.64634404402552   10.79598044629633   15.09364517056528
H         2.87322867494535   10.11948327202446   15.44583536075245
H         4.56244036361573   10.60271104133563   15.64608567927207
H         3.32541269140998   11.81034473038338   15.32474817233865
C         2.53975182700157   10.81167834359714   12.84047214717244
H         2.67448975823380   10.61784266873471   11.77716113615817
H         1.78560931005245   10.13280008466951   13.22805489387591
H         2.16100326555745   11.82563948537062   12.95511784014364
C         7.20153120199349   10.67189841984486    8.06786114503950
C         7.32437024053255   11.75787967213586    9.14118060222008
H         7.23205204613105   12.74303967358696    8.68920101724875
H         6.53461459225132   11.65137276782324    9.88888469843803
H         8.28776654028511   11.70303536595563    9.64444841101614
C         5.88364461593794   10.85290472326791    7.31951662724248
H         5.78102072419468   10.13681073329981    6.50890148130803
H         5.03781403947460   10.74098260935848    7.99657530646248
H         5.84269511186372   11.85069588113113    6.88665842002354
C         8.38347667612155   10.75980718632736    7.10855976574761
H         8.48070827150535   11.78515312787585    6.75570598875165
H         9.31596628213825   10.48605121882849    7.59598668267029
H         8.24117936551133   10.12581372960304    6.23853538529666

