27
CSD_code = BICFEZ | q = -1 | S = 0 | Stoichiometry = C12H8NORuS4(1-) | MND = 5
Ru        0.64772298909284    7.29342215458598   11.83330733546548
S         0.33575847618400    5.09814001134427   11.07665234532048
S        -1.66897064015603    7.33917718386020   12.16945923885875
S         0.53328814534845    9.61832873264902   11.56459290502433
S         2.52529303985092    7.38254180045675   10.43757225691410
N         1.28432493487773    7.09977650354525   13.36660751163901
O         1.73280129669355    6.96108181456228   14.44497237212727
C        -1.26768400192211    4.67787752823506   11.63399303174289
C        -1.68654834890279    3.35127789209855   11.57454655879306
H        -0.99573310063471    2.60942837735005   11.20241637228727
C        -2.95698321956130    3.00234257925664   11.98384995976947
H        -3.27181831513808    1.96900278244286   11.93816168798809
C        -3.82908703169285    3.97625449133447   12.45450309691931
H        -4.82490254232224    3.70344045877713   12.77523319947732
C        -3.42577300094399    5.29422869961958   12.51514274046616
H        -4.08958745277518    6.06616401750650   12.87503706781832
C        -2.14422780726751    5.65708893610548   12.10941770672957
C         2.09997687115531   10.05052163667912   10.91886286572494
C         2.47284642077483   11.39117917867289   10.86955147939718
H         1.78618692615394   12.13083860160787   11.25361351767077
C         3.69361568077186   11.75623428291236   10.34050049220591
H         3.97618426983589   12.79941230153519   10.31066199073051
C         4.55761092124136   10.78560188170747    9.84869555401782
H         5.51459642883258   11.07107549853470    9.43442022997420
C         4.19706868796128    9.45448536996057    9.88925429187678
H         4.85356934936419    8.68594584315807    9.50917912046099
C         2.96967102317618    9.07413144150180   10.42529507060180

