66
CSD_code = BICFEA | q = 1 | S = 0 | Stoichiometry = C20H40IrN2OP2(1+) | MND = 4
Ir        5.35730663062349    8.94632975474460   10.93235561670740
P         6.85671862571057    8.94672109468996    9.07576726617521
O         2.91124669593766    8.96544148239869    9.46136007552319
N         7.03686282848173    8.94369789777617   11.94613380433166
C         8.39498580385215    8.94620455349872    9.98806797770202
H         9.36243387930027    8.94712182127150    9.51380536608785
N         3.91319570954389    8.95375960599572   10.06270496173066
P         4.41379923483897    8.94618683946576   13.12539535630182
C         8.26007797831929    8.94430417248267   11.32658799652091
H         9.13673100825254    8.94402242848111   11.96847942004733
C         7.05933987004826    8.94420634621287   13.31709645812832
H         8.03601685163969    8.94392907643154   13.79316036959488
C         5.93815173220971    8.94576186812082   14.06066222383202
H         5.96916129536922    8.94664799921593   15.13761210385935
C         3.54611969877272    7.34383886769558   13.60935648983839
C         4.50620154615155    6.25387931947308   13.12263274547297
H         4.68053629814599    6.34502560848821   12.04775171750520
H         4.08209566671321    5.27036216067392   13.31278563957844
H         5.46306831343565    6.31554220181967   13.63851654181699
C         3.34283548856704    7.21403269390660   15.11516828794360
H         2.58260325109857    7.89918575322972   15.47849424862602
H         4.26691492419926    7.39073015119174   15.66023675918261
H         3.00958925738157    6.20307639947345   15.34371486037025
C         2.21595532370018    7.21178340554309   12.87259246964745
H         2.33054902022816    7.42189396526303   11.80997106109298
H         1.46411527377124    7.88061028473207   13.28118173061728
H         1.84206957627817    6.19486762466609   12.97565963002585
C         6.88036057091048    7.34372170026906    8.08388770991753
C         6.93171721754255    6.25517944800668    9.16049510649026
H         6.88090795964604    5.27120925240519    8.69955684316142
H         6.08712909614892    6.35114610066169    9.84738153869126
H         7.85559287319857    6.31397314713827    9.73330206177993
C         5.59308259015722    7.19721448215629    7.27714696151890
H         5.56998319100976    7.87955307273782    6.43239901925333
H         4.71622954702109    7.37880195874463    7.89732291549183
H         5.52311673499028    6.18472298598523    6.88404871825953
C         8.10077395855063    7.22821278577945    7.17677110281410
H         8.16520666740990    6.21079606083588    6.79442307038666
H         9.02163602803683    7.43995055406174    7.71512186705093
H         8.03031939292322    7.89521949619533    6.32251332447803
C         3.54624482915928   10.54905718729371   13.60753643713268
C         4.50772264657876   11.63769331252971   13.12064281109659
H         4.68420344695919   11.54459667993987   12.04622379771295
H         4.08343941344092   12.62159638289316   13.30810776348036
H         5.46355438511736   11.57662752691964   13.63850236926295
C         3.34148515439185   10.68023992049532   15.11300358177079
H         2.57943769857665    9.99687620596559   15.47591264790168
H         4.26452685139262   10.50239855747925   15.65945766148483
H         3.00975455060170   11.69201238659694   15.34002238316708
C         2.21676111773157   10.68100371804387   12.86953074809125
H         2.33224930009602   10.47263636407071   11.80674225622914
H         1.46492960225891   10.01112884611903   13.27640979948070
H         1.84225655514800   11.69754440312130   12.97373087473490
C         6.87958032056465   10.54961542004654    8.08381114520239
C         6.92601965119377   11.63750421875491    9.16129960750680
H         6.87463084017940   12.62157121285458    8.70068530023414
H         6.07969584279754   11.53975135064020    9.84590295959399
H         7.84850588474871   11.57996380677080    9.73653875227975
C         5.59427659825021   10.69348478290744    7.27343407650032
H         5.57485085709013   10.01069812595647    6.42894380381088
H         4.71570615150792   10.51108884956100    7.89077233168093
H         5.52411312334762   11.70564752477083    6.87962810656904
C         8.10206313916559   10.66807599420121    7.17985879926457
H         8.16440682786664   11.68574584241260    6.79786590711907
H         9.02224536723583   10.45894196293462    7.72043701403193
H         8.03560223448078   10.00103499480076    6.32527764710469

