100
CSD_code = BICHON | q = 0 | S = 0 | Stoichiometry = C39H55ClN2P2Ti | MND = 5
C         9.39004828426518    9.16684381234732    4.61598946825209
C         8.72818635029070   10.40037421468810    4.70104748815928
C         8.25148317550564   10.82106304766734    5.93472602152064
H         7.75413751222767   11.77486997625392    6.01510420951684
C         8.39580891954807   10.03469787174118    7.06078906173556
H         8.00611989089375   10.37112422034036    8.00992423444885
C         9.04595486679046    8.81982010425166    6.96945679370199
H         9.15606592889367    8.21054431126569    7.85329229049679
C         9.55675119959402    8.37070902889141    5.76016412130409
C         8.60181516343115   11.29997640984607    3.49387797148830
H         8.81734377910944   10.71934384299270    2.58652721701428
C         7.20629230997504   11.90717489819122    3.34146227475415
H         7.12968433924112   12.41215184215950    2.38097086492237
H         7.00633032888719   12.63841257136223    4.12036571449690
H         6.43859504604640   11.13657941640736    3.39007955287424
C         9.66982671680525   12.39075099332728    3.61594825904546
H         9.70181883761373   12.99940237176480    2.71447942834695
H        10.64670574280913   11.91535743941780    3.75865483056531
H         9.46603414315199   13.03253897599727    4.47088150972608
C        10.26478565138296    7.03722254347776    5.68594340964057
H        10.68476928471172    6.92360213674848    4.67650729979270
C         9.28338788301503    5.88794514263032    5.93379189243873
H         9.79934457916847    4.93242825573176    5.86747996126067
H         8.48392380035895    5.89540485022635    5.19543780339576
H         8.83752935278021    5.96897400666103    6.92242643237456
C        11.42413204980091    6.99032061581663    6.68168283647204
H        11.95540547044791    6.04570971137087    6.59071246039926
H        11.07000826906257    7.08155764935843    7.70504746277899
H        12.11434084556489    7.80712640046056    6.47619323443812
C        13.28418786597413    7.19560726059498    1.40741369584368
C        14.05594032024317    6.43610368333790    2.30697349443450
C        15.32360227011229    6.03002381583930    1.91998978212460
H        15.92306204634654    5.43121458381265    2.58514413503190
C        15.83692809805949    6.38046326051404    0.68562821678511
H        16.82280282898627    6.04796728865862    0.39766030906991
C        15.09309764949284    7.16501574471804   -0.17229099221822
H        15.51129942905299    7.45040855555955   -1.12544501507535
C        13.81026198657434    7.58043868476552    0.16019790764295
C        13.47423862088201    6.05649466200058    3.65058633010081
H        12.92269348595109    6.93963688469564    4.02071291507375
C        12.49885751523800    4.88196604801646    3.49811520592421
H        12.15355039445227    4.55551769238675    4.47643394789131
H        12.99715784134298    4.04350633128613    3.01340573501977
H        11.62895572631119    5.15754565637103    2.90605522454994
C        14.53891470608900    5.69703124694477    4.68489525363621
H        15.31646978630987    6.45492049336032    4.71139452419784
H        14.98772085856722    4.72972224833348    4.46697877743140
H        14.08523683869245    5.64111966264365    5.67128010482322
C        13.03857079645149    8.43853344699728   -0.82085729465822
H        12.01438311525161    8.58696656713512   -0.45436530533412
C        12.96366431189591    7.79155709576318   -2.20809854480023
H        12.25874879538045    8.33756320816178   -2.83155633500998
H        12.64273843541242    6.75414557861339   -2.14809691569516
H        13.93337399360233    7.81602770681298   -2.69920822598881
C        13.68922126383680    9.82025822562868   -0.93002342908300
H        13.11523163123991   10.44990061876666   -1.60657654553654
H        14.70814899054097    9.74253420243735   -1.30407672276391
H        13.71035098739586   10.29860040312415    0.05096989017989
C         7.61560618711830    7.89724915939175    2.86458270472091
H         7.43127289426654    7.82773522180758    3.93599612132027
H         7.15654188389469    7.05077596324606    2.36137351561884
H         7.14119760004910    8.81131368047289    2.50619098421277
C         9.09751562031563    7.95952077070699    2.58842292449983
C         9.59229039219550    7.19693007634217    1.53009556733573
C        10.93043181710452    6.93701594057207    1.19614724922029
C        11.12612338851325    5.84169075863909    0.17262245857231
H        12.16729620053594    5.53321408349719    0.11355193780989
H        10.80216644913295    6.19096192145331   -0.80671661443005
H        10.51563655170751    4.97870397847884    0.43463092217217
C        15.56241523135871    9.34766905146183    3.18089688441224
C        15.89579884050685    8.96010841430197    4.47219472916913
H        15.17754731619260    9.12490031323601    5.26605926049365
C        17.12411407617478    8.38040159061255    4.73361694829762
H        17.37962615193713    8.09085194587872    5.74363933481959
C        18.02932826942797    8.17515142901018    3.70493789242009
H        18.98997762047258    7.72488029440222    3.91030771069429
C        17.69892145167648    8.54805126593079    2.41301080093125
H        18.40163158312447    8.38710575648730    1.60758098485694
C        16.47095424106932    9.12761653299592    2.15104231818199
H        16.20912179054562    9.40886944526181    1.14069478261061
C        14.57985668109698   11.99321027138562    2.92328804826165
C        15.54601924326341   12.29793337567464    1.78162229434451
H        15.07672165694302   12.11529166230392    0.81587460015778
H        16.44483342780637   11.68947632422389    1.85783403555046
H        15.84215779155373   13.34625756992003    1.82244899048794
C        15.25091522893374   12.23479791239039    4.27041109794728
H        16.19838910624204   11.70317455939317    4.33719103472692
H        14.59930184469598   11.88978363839304    5.07408016778941
H        15.44099900905423   13.29901101006771    4.40825096632299
C        13.33901237393175   12.87204634944474    2.79739755168915
H        12.78285759940723   12.63158500015009    1.88883400388219
H        13.61666991831298   13.92542404271961    2.76338665684751
H        12.69010623069777   12.71452085300695    3.65977273132817
N         9.88057208562080    8.67418969548129    3.37829780524375
N        11.95808229801432    7.53065618062657    1.77279163378881
P        12.72329318357223    9.87286492139435    4.48804152517965
P        13.96435379685628   10.17817112116978    2.79231602783346
Cl       10.96144444439019   10.69759909528426    1.05414391209178
Ti       11.53205907701358    9.23293395827878    2.60284322677674
H         8.85799913428244    6.65283734592395    0.95159004288988

