72
CSD_code = BICLEH | q = 0 | S = 0 | Stoichiometry = C31H32O2P2RuS4 | MND = 6
Ru        6.55595392197312    5.53137529008572   12.51443938102335
S         5.96124103960334    6.71588682272013   14.55227044911761
S         8.00749649500804    7.48587216217272   12.67097445559448
C         7.18958872979389    7.79018845340900   14.10420567101137
O         7.55819393370162    8.83975549856012   14.81291879545531
C         6.86533544413851    9.14187362073093   16.01898986183481
H         7.56596751604936    9.75382584966927   16.59154684479487
H         6.65716236253855    8.21178548499816   16.55992052017602
C         5.57374607160314    9.90033696406959   15.74908165676988
H         5.78156673483761   10.80168462995953   15.17790170237958
H         5.11035358868244   10.17271226692868   16.69262560771651
H         4.88335411564005    9.27979418323019   15.18291241139517
S         7.78977664485979    4.43463291634402   10.73984105986899
S         8.19290106139897    4.03809795310911   13.55692002231073
C         8.60316054890226    3.62779193989550   11.98278707873659
O         9.54085687505460    2.71923102506996   11.79817034509044
C         9.84990255296552    2.30882915617472   10.47038210413969
H        10.84760375005735    1.87068398129893   10.54470590529127
H         9.87824025055587    3.18797836585791    9.81680748817664
C         8.84360035667418    1.29144185284333    9.95053377280821
H         8.79246799601453    0.43877410932110   10.62314315633331
H         9.14891093203918    0.95177546245938    8.96538387189647
H         7.85546287125170    1.73987580578090    9.87693349316766
C         3.58192065005546    5.26179367896949   11.91436041413374
H         2.91071248363618    4.92520851925584   11.11998088917765
H         3.01502040490243    5.58641200203072   12.79337445519072
P         4.83495613835646    6.55580345092911   11.43541692801675
C         4.22135183310890    8.17556201457739   11.99193090911069
C         3.07117902491733    8.41223556893760   12.73227820809456
H         2.40827933124547    7.60162014375863   12.99859234392225
C         2.77008426074532    9.70220593353534   13.13606803549945
H         1.87381894651669    9.88606630240950   13.71079282496600
C         3.61286167606517   10.75272378284577   12.81477042885717
H         3.37298044606244   11.75407290837260   13.14075445572185
C         4.76696037176262   10.51866841980391   12.08259223291201
H         5.43005488082574   11.33514474759706   11.83733414180419
C         5.07009798238899    9.23571261781431   11.67332716487562
H         5.97207113876487    9.03049771059448   11.10796212108052
C         4.63532933862860    6.75053663904511    9.63990103256390
C         3.38575934578912    7.03708587875939    9.09897897735652
H         2.53100018132160    7.14570869735907    9.75406739665336
C         3.25267135154621    7.18753187834469    7.73215092602080
H         2.28472425909485    7.40736628555495    7.30539182061475
C         4.36141540501450    7.06088783333666    6.90786263106344
H         4.25098069274526    7.17929475296350    5.83987575012453
C         5.60703016434284    6.78765806099510    7.44811263491568
H         6.46886171617345    6.69373710279644    6.80430550554215
C         5.74723044032817    6.63336839885277    8.81628282433467
H         6.71005447971293    6.41182346831800    9.25873148976440
P         4.85467451587116    4.02825463581632   12.50664688162187
C         4.09129743814628    3.25508531204542   13.95584540690996
C         4.77128148226654    3.29328227376839   15.16637957200815
H         5.74380108742343    3.76714568607695   15.21046679515379
C         4.19890093268936    2.72799385246904   16.29267752661977
H         4.72466425745405    2.75333953271480   17.23556395546161
C         2.95213890393103    2.13116414090759   16.20795823110068
H         2.50472813456931    1.69017389553793   17.08678886892596
C         2.27188244651868    2.09571408933906   14.99894961317130
H         1.29925943302565    1.62863483561850   14.94016464649488
C         2.83725542636019    2.65616509273673   13.87010736020734
H         2.32165412525734    2.62910154850148   12.91886585787485
C         4.83937378671123    2.71730011551425   11.25636423251528
C         4.99012436725801    1.38240754857505   11.61874873090521
H         5.01335544364577    1.11118664354723   12.66568604443305
C         5.10981960162417    0.41424718757254   10.63770448966401
H         5.22266734140097   -0.62287541771503   10.91809111651648
C         5.09592791794800    0.77295595236561    9.29951729323600
H         5.19545477080988    0.01419923000909    8.53739894728970
C         4.97130391345026    2.10594925648060    8.93714525898149
H         4.97905111252279    2.38825299716640    7.89455098880482
C         4.85213483931703    3.07800495156883    9.91116905830727
H         4.78929798440354    4.12528604694135    9.63981692638037

