75
CSD_code = BICLOR | q = 0 | S = 0 | Stoichiometry = C32H34O2P2RuS4 | MND = 6
Ru        6.02905560642981   13.99961104640062   10.81065659491000
S         7.92426376893703   12.61837490243394   11.48291038358774
S         5.81109157317897   13.53776092496355   13.21443779309213
C         7.27794125333577   12.74261769111964   13.03816459740027
O         7.86636666092327   12.25424116099363   14.11206469926785
C         9.13052453159745   11.62028443627056   13.94842377791616
H         9.80249012018592   12.30265461956400   13.41194782656096
H         8.99991137418005   10.71886992060674   13.33721598677980
C         9.66960919534205   11.28220385171584   15.32496436534180
H         9.78912152958718   12.18992733407892   15.90988368203402
H        10.63239327659504   10.78948490538414   15.22751979268080
H         8.98010591689162   10.62222366519467   15.84401268538331
S         3.75604122761276   14.85645413188127   10.57574472657046
S         4.58243668009598   12.12405753147615   10.17002286921978
C         3.36992128187177   13.28818889410672   10.10255836809044
O         2.13972646984230   13.04742231480095    9.69553181349930
C         1.82909420085974   11.73343290603367    9.24473307519698
H         1.91925149495240   11.03549420244924   10.08633759877282
H         2.55729981309313   11.43976992500221    8.47819466712606
C         0.41851370901736   11.75181253354657    8.68821722440940
H        -0.28248155083206   12.05494820869850    9.46089711651814
H         0.15300918195768   10.76063749511076    8.33254086149834
H         0.35560432363582   12.45891851870443    7.86542764094013
P         7.12526599640672   15.91273878762826   11.25022098712937
C         7.45355144884370   16.81661138779156    9.66062986506805
H         6.57798309354943   17.46531725300841    9.54134687416957
H         8.33876746107316   17.45183886272955    9.76837318926029
C         7.58361226147058   15.87613352066077    8.46650209624260
H         8.60454073864748   15.48588937165251    8.39341395184821
H         7.34561845993281   16.39245631460832    7.53107687168264
P         6.51264313364546   14.36466529068892    8.64292092002199
C         6.44666013954148   17.25193539672900   12.27092287821536
C         5.18182408305143   17.12731547168661   12.82891648786321
H         4.61022976881560   16.22632114591901   12.65257463951964
C         4.66686278959710   18.14973477960149   13.60732634782160
H         3.68357793045159   18.05017571060120   14.04239771026373
C         5.41300355176048   19.29436623546924   13.82916855153723
H         5.01216800061237   20.09179013342145   14.43790011631758
C         6.67933506287444   19.41901533889343   13.27666283802193
H         7.26216829771987   20.31104383389886   13.45654076486179
C         7.19947290004642   18.40157683918993   12.50090068740826
H         8.19320246383150   18.48557051538835   12.08110499300555
C         8.74318647531421   15.67478106276484   12.04195632939543
C         8.77578012863800   15.60909019941233   13.43402671998117
H         7.87541053754305   15.82162227511675   13.99689049394767
C         9.94495375236483   15.26508275806529   14.08570073480672
H         9.96305554305538   15.21261241396548   15.16480995785081
C        11.08726721734072   14.97729276999654   13.35527885150997
H        11.99929271670440   14.70183358929155   13.86490996522162
C        11.05653251375279   15.03030214576683   11.97095865046632
H        11.94387341783927   14.79385631206812   11.40162676821420
C         9.88749527363330   15.36699971558973   11.31339066929996
H         9.85606219234525   15.37342253484139   10.23324906209280
C         5.05932912989735   14.67920867477810    7.59906376950885
C         4.43489312328238   15.92287700081444    7.59485871399631
H         4.88193752665347   16.74865810035311    8.13088431572557
C         3.23288282854383   16.09116666813434    6.93364719310546
H         2.75047361757254   17.05762081426699    6.93379953333870
C         2.63548822549989   15.01836706984272    6.29176334693018
H         1.68931093767554   15.15021822325145    5.78747926178624
C         3.24378507569599   13.77396280135289    6.30790841437826
H         2.77350656515935   12.93414698287602    5.81574390954322
C         4.44925758706081   13.60096291650275    6.96255484627981
H         4.92503319344632   12.62852560642472    6.99131717223389
C         7.40813328503259   13.16898578604000    7.60815507562598
C         7.68743295281893   11.90047900532167    8.09810678278312
H         7.37807043840088   11.63902052495422    9.10113746036669
C         8.35291120469300   10.98234317077417    7.30396393622709
H         8.56879051196962    9.99624889523776    7.68787918785317
C         8.73777488529693   11.32839770547851    6.02020609903088
H         9.25700505058385   10.61258847719915    5.39965479319951
C         8.45245488760851   12.59218922020662    5.52448164164185
H         8.74695246587970   12.85734669936610    4.51917180897301
C         7.78704276031358   13.51149352652568    6.31181124936220
H         7.54764475716316   14.49240904335941    5.92390436825825

