73
CSD_code = BICLUX | q = 0 | S = 0 | Stoichiometry = C32H32O2P2RuS4 | MND = 6
Ru        5.41043789166685    0.00156366561328    9.57201294005958
S         7.65843152626898   -0.94785816913560    9.72867933993848
S         6.95320551762907    1.81453715927367   10.15407956196282
C         8.10656257775920    0.59312225289298   10.24035379625285
O         9.33117841409328    0.76837282307292   10.69365599220649
C         9.68116330357147    2.05365421179506   11.19644833784601
H         8.91840215145686    2.37089168637665   11.91908621659765
H         9.68869076960538    2.77205483461160   10.36747648758634
C        11.04533397851143    1.94427509956488   11.84941656000215
H        11.78125844161415    1.61335689368838   11.12204781187612
H        11.00695296872819    1.22196311175320   12.66044328067032
H        11.34049462897353    2.91238716231335   12.24311125213328
S         3.52210394384493    1.45234206461258    9.07252450926856
S         5.44348269233873    0.47149044808177    7.15964454476991
C         4.01536549625241    1.29911942271338    7.46335551239663
O         3.33820768331719    1.78748799729913    6.44332807868799
C         2.10633036720059    2.44709115302189    6.71588692857982
H         2.30883810015876    3.35092149959017    7.30321718148403
H         1.47449171807537    1.78249888340520    7.31936353138239
C         1.44971526467770    2.78300664205171    5.39068554832201
H         1.26713694180544    1.87291234806843    4.82615980905293
H         2.09794909691657    3.43018822088401    4.80660330899008
H         0.50574027471905    3.28888716271163    5.56996967653773
P         5.02296514808703   -0.41248020349815   11.74483407587847
C         4.41550762882615   -2.11621983153621   11.91147403003019
H         4.37709424523261   -2.56982520547277   12.89703627982061
C         4.03749344149488   -2.74501903363583   10.80100533534936
H         3.64920998784504   -3.75839136912964   10.79081630326178
P         4.24000201244648   -1.88101726626720    9.21329991823651
C         4.77578565153519   -3.23547013162606    8.13438489507530
C         6.00164450875784   -3.14730461351169    7.48846414141554
H         6.61327421016280   -2.26582856420733    7.62883460198297
C         6.42332776476529   -4.18121869545038    6.67057749716260
H         7.37546910662779   -4.11315629520130    6.16577686968503
C         5.62406254766043   -5.29893494310562    6.50015302091074
H         5.95327483612677   -6.10626351946532    5.86225136115240
C         4.39716346204502   -5.38576054539525    7.14208296057031
H         3.77409575367812   -6.25749324481552    7.00164963966977
C         3.96866462537922   -4.35711387312912    7.95818745999205
H         3.00509793326860   -4.40903244756365    8.44896009429831
C         2.53051527013556   -1.60208400779480    8.67222959101610
C         2.23904954050292   -1.60109581994919    7.31088124759727
H         2.99747531659042   -1.90889016584880    6.60213668083429
C         0.99048575051843   -1.19517484928250    6.87613842160231
H         0.76480562537889   -1.19111288337888    5.81937419939657
C         0.03629248394944   -0.78163962544369    7.79230942100372
H        -0.93577392692051   -0.45848426018461    7.44867268870347
C         0.33123147645160   -0.76585255748885    9.14722831495643
H        -0.40810553527757   -0.42643030651758    9.85797238457272
C         1.57852413054758   -1.16422357758489    9.58890476212821
H         1.83476809504715   -1.11809667140164   10.64046619998670
C         6.42807612111296   -0.37402377923462   12.89272211966738
C         7.30439318014418   -1.45770878013470   12.89544575931321
H         7.06203896235792   -2.33709706875569   12.31166419778841
C         8.48042257695384   -1.39223238097032   13.61794836512338
H         9.16075708814945   -2.23101047135130   13.61458624774768
C         8.79440544150782   -0.24477472392914   14.32910971147854
H         9.71871771424905   -0.19145640085329   14.88623507489051
C         7.92831238581831    0.83677616254375   14.32286986389527
H         8.17749274043482    1.73279205259150   14.87364030156483
C         6.74827379663477    0.77867391304653   13.60303706715904
H         6.07455244964888    1.62484357115797   13.58514800719599
C         3.76391340951881    0.58633425081396   12.58672701467051
C         3.78526431461295    1.95451960864294   12.32645213567779
H         4.52775408942174    2.35219168107612   11.64468118131034
C         2.85542118858989    2.78818200707447   12.91788456492254
H         2.87471522034480    3.84852542221840   12.71345246699157
C         1.89333535791526    2.25925826574444   13.76331574281777
H         1.16114685025573    2.90809780931329   14.22138902058945
C         1.86335056751201    0.89761350538303   14.01600478205430
H         1.10811981356941    0.48652218278983   14.67060613208951
C         2.79523642326242    0.05774436522810   13.43235611409563
H         2.76402546804841   -1.00392325862135   13.63077152612368

