27
CSD_code = BICMUV | q = 0 | S = 0 | Stoichiometry = C14F6HgN2O4 | MND = 5
Hg        4.77289701184822    4.20886211156070    0.53647705716046
C         3.31344755394313    6.72470436324911    1.94002119467339
N         3.32777728392535    5.35086552403679    1.99594089287594
C         2.58845649398466    4.69072738849560    2.80151602107765
C         1.79371706799058    5.41821599337701    3.58478939544151
C         1.70081228771648    6.70176359941147    3.61311677675449
C         2.46667595415005    7.39888001126419    2.78014539167380
C         4.20346510827823    7.35629492990528    0.98368433192422
C         4.28530607987172    8.70699032992405    0.76861734470524
C         5.13629635959110    9.16074818487002   -0.14589757873613
C         5.84875323507031    8.29887088789583   -0.78361000143650
C         5.82842071116428    6.97533820009674   -0.63470743988345
N         5.01520644709779    6.52960858749489    0.24340080618440
C         2.94538873705562    3.22492865853840   -0.69117453094999
C         1.72668967783026    2.59814231333522   -1.39720872441765
C         7.03917304562928    3.92972788763145    1.29855075920081
C         8.51119383802054    3.83429253024952    1.74704022927108
O         3.50767895101942    2.56954861609304    0.20020366695030
O         3.26803624059001    4.37930083171660   -1.00677517242860
O         6.19609826771699    4.25079244900635    2.14936578234300
O         6.77364113842428    3.73966900132469    0.10162945792465
F         1.63754940953812    2.97078258007352   -2.67244705010686
F         1.73863346530906    1.26963644968460   -1.36217835643586
F         0.60241756586405    3.00470478890256   -0.78518006855593
F         9.26647354745041    3.15298084838939    0.89159873263694
F         9.02836045669642    5.07006709591013    1.83979119406616
F         8.63513406420803    3.26355583757455    2.94388988811247

