38
CSD_code = BICPUY | q = 0 | S = 0 | Stoichiometry = C14H16FeO7 | MND = 7
Fe        2.25933534118663    3.03474704617576    2.68696638551261
C         1.24973333801219    1.77601048294882    1.23986538485190
C         0.28268719705496    2.68403820445926    1.79887784797871
C         0.13757615332586    2.58281763533476    3.19196161804214
C         1.07270506618927    1.68030711895725    3.81917426033340
C         1.12434994849092    0.26385941647838    3.24942185777127
C         1.15379322030023    0.32824138909691    1.71613388948002
O         1.45067912057561    1.96065662695798   -0.11643471315918
C         2.63219307367549    1.41484252004418   -0.65605337796655
O        -0.70749484364536    3.29072586458417    3.96991733119941
C        -1.27759494337308    4.46312080682092    3.42511052102093
C        -0.07988945542536   -0.54494069628761    3.76034491580607
C         2.37207654665192   -0.46688260044107    3.75128530935407
O         3.01964100532971   -1.23710053511411    3.09168468899033
O         2.63820914966794   -0.18181450798219    5.02395291325799
C         3.78466022190305   -0.81544977073418    5.57737357168415
C         2.54604715384279    4.18073655905855    4.00975939092202
O         2.81694554567264    4.90007135492497    4.85981738275544
C         2.89441942193380    4.20988808385473    1.54045876241036
O         3.35300023434496    4.97020441929696    0.81517234975403
C         3.71537633358382    2.00533534312960    2.79461487692698
O         4.70101061016111    1.43746131505107    2.92840879318470
H        -0.27324963872628    3.36233330682842    1.16739881196653
H         1.01480216704860    1.68030254189404    4.90580056230339
H         2.00169376187348   -0.25416248275460    1.35257003804267
H         0.24399864521801   -0.10524208586606    1.28939151902001
H         3.49666797042135    1.69277594378924   -0.03956861694291
H         2.73776083248986    1.84712285580434   -1.64946319504847
H         2.58367900599719    0.32547824497584   -0.74021404420145
H        -0.49489462010460    5.12921830192413    3.04516594852354
H        -1.80771854083751    4.94698140218775    4.24303893853080
H        -1.98264914689829    4.23086445877873    2.62175117005397
H        -0.06995890484523   -0.58938925146618    4.84709881614200
H        -0.04727438086381   -1.55979080555919    3.36842529284039
H        -1.00471494076735   -0.06959214530240    3.44061999933064
H         4.67553614735113   -0.53778708236996    5.01104730137366
H         3.67092511768638   -1.90090204929420    5.54571463625013
H         3.85893708549809   -0.46608723018497    6.60370886170467

