64
CSD_code = BICQAI | q = 0 | S = 0 | Stoichiometry = C29H28N3NiOPS | MND = 4
Ni        6.07030388915586   11.71692413428062   12.87700265047332
S         7.87260876709126   12.48491117831244   16.77915702776835
P         7.03725595138656   12.53538052923483   11.08478702730856
O         4.79649496637604   11.04460460318506   11.77382897967128
N         5.13294378020767   11.20350844142736   14.42490417240066
N         5.81484229562353   11.47382769785105   15.56562678709560
N         7.35318951134809   12.32114594056181   14.09376619033639
C         3.62544196248804   10.55622699653778   12.05616917821482
C         2.77553842407621   10.24586599649630   10.97268899418866
H         3.14647567944995   10.45145590695066    9.97886108655743
C         1.53296450601125    9.70704300986589   11.16972307770997
H         0.90456494283057    9.47880267745848   10.32012863968688
C         1.06222818604730    9.44819179206189   12.46237472104447
C         1.87414107364815    9.74850250257759   13.53023794702466
H         1.50285950748779    9.55349402434209   14.52406162841915
C         3.15775950103916   10.30384825689174   13.37634094745364
C        -0.30326968669405    8.85751013223581   12.65620445468326
H        -0.37179858988213    7.88809894677254   12.16312738068402
H        -1.06408647108971    9.50557699844262   12.22175965313019
H        -0.52417324732704    8.72435184502478   13.71233118234409
C         3.96729213523335   10.61380203566431   14.52446546621240
C         3.45808372467821   10.26412301773848   15.89502971896605
H         4.22141215622429   10.51342438057145   16.62648133121322
H         3.23239068693838    9.20143799911076   15.95363753004660
H         2.55453135450463   10.82895434331603   16.11726203230371
C         6.95420635689067   12.06684623561182   15.32809665219762
C         9.42706928460467   13.12945136502436   16.07845496164573
H        10.06025159236164   13.34801952051297   16.93205753128049
H         9.89903703708172   12.37293964829774   15.45711237861122
H         9.24299023426707   14.04290332878973   15.51800494410144
C         5.80776032327299   13.63512254900623   10.31085804907791
C         4.84400811389505   14.18066888521741   11.15386738655233
H         4.85998434551344   13.91330808059868   12.20990625402901
C         3.87524430737451   15.02763931803657   10.65043785004157
H         3.12532048559160   15.44461337353885   11.30629864421487
C         3.86453304418249   15.33281801449739    9.29831492335253
H         3.10581908849741   15.99017020183214    8.89984295420992
C         4.82051327745801   14.78989265826399    8.45524506400624
H         4.80650083205735   15.02581679181677    7.40101396192452
C         5.79258167333796   13.94124986029316    8.95594716665332
H         6.53203811016373   13.51236131866779    8.29471303740352
C         7.57004359756426   11.49117746766026    9.69066705089476
C         6.92065571066255   10.27576187500809    9.50099616713858
H         6.14725330682824    9.98232180339033   10.19638334851703
C         7.26530975117920    9.46275576288633    8.43652715656779
H         6.75875267043380    8.51974738016905    8.29246646640167
C         8.26268936167731    9.85539941456579    7.55868725475055
H         8.53485288930837    9.22015648213128    6.72860463046224
C         8.91527549744400   11.06307093288265    7.74732089147508
H         9.69416567918476   11.36949024259548    7.06397168620369
C         8.57340214154632   11.88192174651264    8.80876232373667
H         9.08823308768905   12.82177029136022    8.95335844189006
C         8.47891702600108   13.63137736969317   11.30885788415093
C         9.66955673361393   13.03517815890028   11.72211638297291
H         9.70593341395434   11.95802092727196   11.83063257187364
C        10.78408992768931   13.80740407708988   11.98605975284514
H        11.70525813823184   13.33961780074944   12.30219899039771
C        10.71684004679709   15.18616856957234   11.84980813481934
H        11.58595669118248   15.79198185076893   12.05900585398153
C         9.53406634227199   15.78466545511650   11.44997014490256
H         9.48074630615178   16.85864421580242   11.34695815666197
C         8.41496265321123   15.01318104778099   11.18388466641558
H         7.49140497482610   15.48366173835032   10.87770490746965
H         8.23978093931589   12.80239085233885   13.98582757116823

