81
CSD_code = BICROX | q = 0 | S = 0 | Stoichiometry = C34H38O2P2RuS4 | MND = 6
Ru        5.97106085109131    4.35364487758703    6.63001653560982
S         5.08106676238188    2.19911121309051    5.90881872573638
S         7.48423296099056    3.45058722538609    4.91950376066259
C         6.39015855215458    2.17299199715386    4.85574434202209
O         6.50942170647719    1.14718345116396    4.03580584558747
C         7.63881203046570    1.11285204541593    3.17052737131004
H         8.55199765806296    1.19532750948069    3.77347071788029
H         7.59883029530264    1.97653752075467    2.49474851873384
C         7.60185595083683   -0.19301941615288    2.40052694115867
H         7.63126967843439   -1.03154181176815    3.09109106145059
H         8.45660262567573   -0.24686671662267    1.73267829052341
H         6.68710986774642   -0.25570356365928    1.81760920249366
S         6.76468253905305    6.68383440843192    6.46063688303643
S         4.85821214641784    5.41070371281768    4.70209265310229
C         5.73235951403073    6.77674369222342    5.13318247333666
O         5.64901664909878    7.93057857591443    4.49890939161157
C         4.74918382538283    8.01865291339062    3.39970574539113
H         3.74845257077161    7.71595174745050    3.73599902614919
H         5.07172300294916    7.32064702797395    2.61710977520910
C         4.75632002915991    9.44992700031829    2.89899785373570
H         4.44328811682254   10.12283945017812    3.69261949929124
H         4.07460995723897    9.54477303233101    2.05899717383093
H         5.75734632215679    9.72906273878026    2.58165996306599
C         7.44284970100372    1.60085206337038    8.10499317171129
C         6.63597129474472    0.74374762235151    8.84610191539727
H         5.96039583159286    1.14044808518449    9.58925120015069
C         6.69885379222695   -0.62260794784327    8.63739984617548
H         6.06909727163638   -1.28178078643689    9.21750058668339
C         7.55668985311183   -1.14707377371303    7.68587917114669
H         7.59239419151643   -2.21343710425881    7.51749291293841
C         8.37230168723413   -0.30085798845616    6.95236273002824
H         9.05069748003324   -0.70677773278793    6.21508071504789
C         8.31826655511664    1.06348293109022    7.16186988658199
H         8.96023945121377    1.72895130062429    6.59787646879125
C         9.08560566934993    3.83803474494977    8.24743597556207
C         9.94016309404682    3.13867493934608    9.09679100753601
H         9.54938009470882    2.34097043214526    9.71472576019606
C        11.28459747942273    3.45162050101342    9.13496359212433
H        11.94564018507867    2.90656496135995    9.79365833964288
C        11.78782045724198    4.45961336725102    8.32592734832120
H        12.84083292780423    4.69918164202999    8.35699963124962
C        10.94325964482784    5.15181925807275    7.47599580708449
H        11.33350918480675    5.93302032335289    6.84052179816565
C         9.59467314311414    4.84152089657992    7.43547180521360
H         8.93076877368452    5.37472587069529    6.76846185590126
P         7.31271791040918    3.41782970900976    8.20538474177069
C         6.83696927574079    3.72443109277672    9.95345815034515
H         5.80449707306870    3.38517397474690   10.07362376060459
H         7.47747791976009    3.13328361702431   10.61397671024942
C         6.94299267360123    5.22566924468779   10.25134028630679
H         7.63401163805721    5.37822966025342   11.08206838607121
H         7.36196326084853    5.74193808320741    9.37772024294629
C         5.59624745636998    5.86654227318723   10.58998698984799
H         5.76674871240600    6.72766181438932   11.24229583073551
H         4.97291428210626    5.15710936137567   11.14092168872999
C         4.84989293691553    6.37457639640027    9.36046299941611
H         5.48252646330598    7.10408298281945    8.84354546622643
H         3.92456632206566    6.87128988809854    9.67209521182834
P         4.38005865435558    5.11467292830290    8.08558982039946
C         3.33074549218609    3.97919239869016    9.05031316933378
C         3.55606649276535    2.61142155888496    8.97132777830887
H         4.34441311823289    2.24986654144495    8.32303847315231
C         2.77064659315601    1.73040175340803    9.69379092223306
H         2.94976688930148    0.66750438452054    9.62260147877701
C         1.75325559585197    2.21397667004341   10.49884406415226
H         1.13848198624047    1.52977215431015   11.06520315902704
C         1.51469913237522    3.57810304638594   10.57003761430734
H         0.71251016056899    3.95375890537381   11.18886173742094
C         2.29564587312066    4.46012772858574    9.84727603609457
H         2.09390261471522    5.52136096822883    9.89129811281865
C         3.08908370724377    6.03061575856297    7.18400617039654
C         2.10027205868716    5.27785927327422    6.55279874075444
H         2.09001128648213    4.20368428524738    6.68924882930913
C         1.16474850052142    5.89339865310942    5.74459578647328
H         0.40238235371961    5.30343536242394    5.25708522119912
C         1.21523654829462    7.26443932826110    5.54557737192884
H         0.49047396717616    7.74561637819195    4.90470690812413
C         2.20625609837654    8.01510713841280    6.15564273769460
H         2.25636917546519    9.08237524497496    5.99002658195032
C         3.14463892774373    7.40442625819777    6.97001311612573
H         3.92788747262999    7.99825294561306    7.42032242847740

