79
CSD_code = BICXUI | q = 0 | S = 0 | Stoichiometry = C32H40Cl2NO3Y | MND = 7
C        -0.11400036708394   -0.62783458907861    8.60466597337601
C        -1.40344938014866   -0.30574953250999    8.11938090651746
C        -2.37982434180597   -1.28022865618867    7.89355590898582
H        -3.35353067071548   -0.99152683305477    7.52109569937677
C        -2.09645015141390   -2.60672625268424    8.14784285516042
H        -2.84268424437571   -3.36810991307889    7.97459072023058
C        -0.84664445290987   -2.95601165724338    8.63053407032852
H        -0.61974904405299   -3.99363089206833    8.83698159874319
C         0.12324114662820   -1.98159501648471    8.85435058467741
C         1.46077979231826   -2.42848990244803    9.40228572149734
H         1.32543995781203   -2.80309729321577   10.42969113833265
H         1.85350327114152   -3.25475089447218    8.79121662253090
C        -1.72086172585460    1.08662587522796    7.87681325137265
H        -2.73630266329564    1.31654629855088    7.53234176882831
C         3.67767279000122   -1.79228114426085    9.75607319272307
C         4.54367703748632   -2.21932047278986    8.74660237705336
C         5.81681352462413   -2.64471460053805    9.10510221342784
H         6.49801578314461   -2.97478893532391    8.33425127700601
C         6.21554449719577   -2.64947889257023   10.42953252254299
H         7.20749455875789   -2.98535890788864   10.69361596587342
C         5.34713823867831   -2.21756521144859   11.41524627832394
H         5.66181503376367   -2.21828626724154   12.44910132088178
C         4.06599570149067   -1.78317133964458   11.09705736801080
C         4.11251576471238   -2.22261846962265    7.31098700510092
H         3.64582797446334   -3.17532962988480    7.05575018775207
H         4.97002118301961   -2.08722150763132    6.65554097410582
H         3.38933898993462   -1.43187974150027    7.11366362191707
C         3.12692413082649   -1.32007830105792   12.16832926383080
H         2.51662312862644   -2.15179154777838   12.52337177378521
H         2.45559488636572   -0.54630088596287   11.79711696704670
H         3.67939510933769   -0.92934707582173   13.01996524185763
C        -1.24441094451346    3.36196624039430    7.86834560984406
C        -1.83767492641587    4.06615732054293    8.92217622485708
C        -2.14806058231417    5.40495241727958    8.73248775030765
H        -2.60116993382502    5.96021000060160    9.54122123688013
C        -1.88961224021084    6.03035189707826    7.52508515362389
H        -2.13986135885433    7.07245923245656    7.39151316637611
C        -1.31457176947095    5.31750321224460    6.48803480892017
H        -1.12309548232324    5.80341239096022    5.54167459563513
C        -0.98393063596233    3.97828354878613    6.64075669046915
C        -2.13521866670671    3.37575003202411   10.21940471055299
H        -2.41009804706852    4.09873046359882   10.98366025948041
H        -1.27447519527018    2.80287591974029   10.56862145507538
H        -2.96208261071297    2.67466216324516   10.09853153085306
C        -0.37790768400081    3.19180382476000    5.51985277537187
H        -1.09433550784418    2.46618735141989    5.13249704416104
H         0.49395964707130    2.63194821200856    5.86168252440917
H        -0.08065252263099    3.84687972693093    4.70440280231905
C         4.32790020207986    2.03665031387304   10.69297884183912
H         4.43552924886194    3.11259241849076   10.48691371838853
H         3.59722925834777    1.89120780030662   11.48919565211325
C         5.69812719407679    1.41798039394246   10.97539032651811
H         5.59037732022098    0.53144213388513   11.59712952843904
H         6.35752902068372    2.12086295110464   11.47994126315405
C         6.20090713304438    1.03171279679739    9.57565175188244
H         6.49840179641679   -0.01446747620573    9.54592754272522
H         7.04785498573110    1.64010787151569    9.26350833565024
C         4.98706688520115    1.28306945437928    8.66721369657501
H         5.10374298660738    2.22668374451084    8.11632025581456
H         4.80598028415030    0.48314976548089    7.95087384473102
C         1.59170867928852    4.55403107266627    9.72523686559716
H         2.39729014518216    4.56983467795548   10.47238647115486
H         0.66463831170582    4.26765162354862   10.22058374497183
C         1.50115231087689    5.90228860044092    8.99155590319779
H         0.46676706163000    6.22656565832426    8.89818317340134
H         2.05655315382088    6.66967458942628    9.52833669151194
C         2.11175957119263    5.61298684909058    7.61176943576635
H         1.33169998828131    5.57466915198110    6.85348827335991
H         2.85427262813656    6.35077125817422    7.31615405926345
C         2.73120459648113    4.22835427554617    7.79673251203611
H         3.74527579351941    4.32046224551001    8.21549673294660
H         2.76643905685640    3.62666309031322    6.88773322327401
Cl        1.03568410574705    1.62613809094443   11.29326158712573
Cl        2.46118567208529    1.05440958100794    6.56944823920691
N        -0.87039360772532    2.01965506192327    8.06609137420746
O         2.39665763866781   -1.35166329798474    9.40911680760999
O         3.85192946080350    1.37538544996564    9.52544609843332
O         1.88682978340918    3.56980290453757    8.73511577757711
Y         1.38332233698492    1.05940518418093    8.85451556122980

