79
CSD_code = BICXOB | q = 0 | S = 0 | Stoichiometry = C40H35IrOP2 | MND = 6
Ir        2.23771535788264    1.84080292581303    5.18684237172667
P         3.64062693379094    2.60823538479638    3.48494166961322
P         0.68812919028738    3.81965195444801    5.82785074977977
C         1.01972108504700    0.97617781603843    4.08062405765184
C         2.50739740622685    7.21060187824743    8.35082225042201
H         2.96604927700494    7.98036006070725    8.95394524066535
C         6.44034142331518    2.39752830217433    3.93497009125146
H         6.46597908263806    3.47254900078821    4.04781873510858
O         0.26573954282840    0.43312086237823    3.38156241345637
C         5.05826519647247    6.99725916692497    3.31775341684608
H         5.39224220875450    8.02426645886074    3.29446982521186
C         4.64277556974181    4.92253547808854    2.17963511756103
H         4.65284235300490    4.33786683142141    1.27107269033438
C         7.59793967713394    1.65724905790675    4.11045130772587
H         8.52143512597834    2.16036841669783    4.35942259150726
C         7.57540445081168    0.28059721425926    3.97117978043758
H         8.48099552742282   -0.29176000182749    4.10920529046611
C        -1.51073681075410    4.84012650239999    4.33410069124903
H        -2.16049678880929    4.49008099314497    5.12249334701094
C         6.38638408339745   -0.36420412349530    3.66148609363377
H         6.36527181678195   -1.43952278338345    3.55836852348880
C         1.60100689982523    6.47884655058770    6.24845830276967
H         1.35729132489070    6.68535348442579    5.21639419173442
C        -1.41057123690616    4.24922707591927    7.68881289719796
H        -1.05351246942078    5.26570821206200    7.77962460801882
C         4.61813797321356    6.43595711010044    4.50506681177471
H         4.60553681756908    7.02017260746777    5.41363802124053
C         1.65107513710965    4.98404739441761    8.12720931084654
H         1.42514207406665    4.01723628854924    8.55956747191055
C         4.20065040818649    4.35274982743874    3.36934607190297
C         2.23759067231786    5.96653582191528    8.89987743555719
H         2.48610765847099    5.76451612170898    9.93200867246336
C        -0.76155026406780    3.35484933142000    6.84167303564290
C         5.24919938320673    1.75756207720417    3.61790787951562
C         4.18601559583354    5.12300074711855    4.52780199045172
H         3.82461162690499    4.68609071274191    5.44794251273457
C        -2.98875188025211    2.54331696041057    8.29426942846681
H        -3.85177982203934    2.22946360731910    8.86302314117098
C         1.31834466070709    5.23127027792419    6.79407075114009
C        -1.24423843110506    2.05582349610498    6.72388525262768
H        -0.73476253861105    1.36609052462254    6.06419304148284
C         5.06626902859049    6.23941119991676    2.15782408358539
H         5.40615847220891    6.67636971289291    1.22982662401375
C         0.13216681584470    5.72971244076443    2.28262305251759
H         0.77742968741988    6.06575292676867    1.48356751976769
C        -2.35336004492655    1.65246044923508    7.44517600925679
H        -2.72045282462276    0.64136665853472    7.34728557718230
C        -1.23891774617720    5.91155328360114    2.19933374174480
H        -1.67035894383685    6.39545550412878    1.33546063479864
C         0.67709494867945    5.10278678096071    3.38659845908989
H         1.74511995320899    4.93902798800288    3.44444784133329
C         2.18374280107365    7.46225379126118    7.02775609375548
H         2.38538789984758    8.43333886901463    6.59797404489926
C         5.22871797509413    0.36907393874105    3.49631252605357
H         4.28845022258435   -0.12035829197587    3.27450880751313
C        -2.05501165406868    5.46138611572443    3.22342921492525
H        -3.12537998703504    5.59329655393940    3.15755592872005
C        -0.13547302404187    4.66330656800018    4.42964272193951
C        -2.51579281575167    3.84057845884647    8.41265728959479
H        -3.01340130423748    4.53952777575691    9.06966346902495
C         3.20896723487044    2.28697511620347    1.73570595833809
C         3.74117151700209    2.35556099355296    6.69139608158701
H         3.29339620569006    3.03814952833722    7.41083230349058
H         4.78795505133553    2.58908854136965    6.50732560382658
C         4.11879243953887    1.82994710850029    0.78754991494568
H         5.14353274373657    1.63171244444593    1.07028439955742
C         3.39947623716751    0.98853763711260    6.77785919457749
H         4.11731093788095    0.22311796739718    6.49198494407610
C         1.89352305940669    2.53442285587970    1.35462477818914
H         1.18528630826438    2.87486782961815    2.09875154695009
C         2.05231590288402    0.65036563785050    7.03208616353996
H         1.49632693915126    1.25149655982711    7.74811590592624
H         1.78909549778401   -0.40042172836978    7.07664498024844
C         3.71292283982885    1.62369965465807   -0.51930460151676
H         4.42333882868966    1.26282178357137   -1.24928068224192
C         1.49450058391869    2.33738867987514    0.04643493969414
H         0.47156933380220    2.53434092511185   -0.23850954539164
C         2.40404061361171    1.87879074838726   -0.89314697031049
H         2.09282296662624    1.71552736676454   -1.91448563895711

