23
CSD_code = BICZUI | q = 0 | S = 0 | Stoichiometry = C9H11AuClN | MND = 2
Au        0.09073562428407    0.87793006026861    1.88780765110428
Cl        1.95857796518640    2.10329257131359    1.73272979790119
C        -1.56389840697671   -0.24475763571658    1.98927909547120
N        -1.60324871299711   -1.53850210120808    2.09572614089746
C        -0.40988887882368   -2.34397571221596    2.20620003684535
C        -2.81184859596956   -2.34223251300901    2.09592376893100
C        -2.83253495852991    0.48734886006952    1.95368489926487
C        -3.17249684752168    1.24401877530263    0.83280431523815
C        -4.33896305601648    1.98243417782215    0.81720141553342
C        -5.16411716054957    2.01038484101714    1.93092778910596
C        -4.82004141033474    1.28530180164758    3.05870026912315
C        -3.67109986706470    0.51592409539196    3.06829293164911
H        -0.33050977530780   -3.01457266888681    1.34883383024356
H        -0.45446979146348   -2.94598651280744    3.11509762927364
H         0.46767642154694   -1.70105409209541    2.23994435908579
H        -2.70820713797548   -3.14813822740171    1.36831016011445
H        -3.67564573693927   -1.73455897819523    1.83771576252568
H        -2.96777585728786   -2.78533494174889    3.08101586644149
H        -2.51754815959783    1.23503702921059   -0.02576460762313
H        -4.59930980907445    2.55018490023225   -0.06327965968390
H        -6.06656701504909    2.60232473918889    1.92184896618534
H        -5.45125116795920    1.31152443414459    3.93446937101763
H        -3.39956766557782   -0.04099290232293    3.95393021135403

