56
CSD_code = BIDBIB | q = 1 | S = 0 | Stoichiometry = C22H28ClN4Ru(1+) | MND = 9
C         9.15184107125282    2.99407918745472   22.63603147156097
H         9.90719757353058    2.26441636859761   22.37221601487348
C         9.30692380493401    3.80672356362639   23.74306466379165
H        10.19752333194927    3.72863393985120   24.34470246121150
C         8.30015368476586    4.70908255742787   24.06422213375662
H         8.39443559890722    5.35934884265691   24.91878888358243
C         7.16213652544674    4.73891853408182   23.27903135395304
H         6.34632685205975    5.40176861869692   23.51490867707516
C         7.06811046354015    3.88477971660918   22.18392923078573
C         5.88755756707146    3.71953629991179   21.34287526741903
C         4.70996654346392    4.45526717700522   21.41555927538573
H         4.58841972946179    5.26859125527870   22.10721299163169
C         3.70539275582471    4.09930703836272   20.52118499467685
H         2.78835283657709    4.66444921542717   20.44084120031258
C         4.90987609184044    2.31149312443305   19.78451429886417
C         8.69659324469636    3.00420554209822   18.33978314720391
C         9.75394822308931    2.73987340650786   19.23421621518704
H        10.41517031442244    3.55159326614383   19.52387362470080
C        10.06473288812998    1.42103773350372   19.64896275854407
H        10.95800672638131    1.24207805818303   20.23722290602323
C         9.29712990258281    0.33130174177553   19.20785362244972
C         8.19540245323725    0.59645782372741   18.34681288020017
H         7.64263658595793   -0.24095591558215   17.93420981583849
C         7.90637937277600    1.90030282859680   17.92266760177099
H         7.11988234680507    2.05468409750519   17.19250113690247
C         8.48828880851670    4.38405502699942   17.76179567858954
H         9.24274536584924    5.05131578667052   18.19355588066952
C         7.10724132723605    4.93779799083772   18.11960355125716
H         6.31318567063512    4.30398487748432   17.73022959745078
H         6.98665476009352    5.93071960857979   17.69522923482234
H         6.99798032231297    5.01405484100699   19.20179537148900
C         8.69090067666883    4.35156763625371   16.24361651157565
H         9.65690525024279    3.91858643553345   15.99447961657259
H         8.65717684341985    5.36290743566472   15.84852564161584
H         7.91340780982419    3.77020272828925   15.75481416323425
C         9.62332295945323   -1.07038384322978   19.60212318022756
H         9.51446667782185   -1.74416916167285   18.75458010361207
H         8.92937817891452   -1.39877626370302   20.38002167108558
H        10.63387048934734   -1.14626362285054   19.99518431499362
C         3.86484552146215    0.60368304210659   18.36394013204817
H         3.02747748884068    1.29741666998374   18.44436449876628
H         3.57516871635609   -0.35476121749655   18.80340270788168
C         4.24700935178626    0.40564936161429   16.89634761285439
H         5.11105147433883   -0.25984081414649   16.82992048182137
H         4.52422667287219    1.37008347596666   16.46563254616679
C         3.08715810555629   -0.18863962155707   16.10810943025766
H         2.80529776964785   -1.15658930040924   16.51419705733334
H         3.36569557654659   -0.32201341340766   15.06650603509704
H         2.22184727757783    0.46724361896166   16.15111511793502
N         8.07368561223974    3.04087172864534   21.85586306401689
N         6.01816987202277    2.70604307751405   20.46276968775803
N         3.79403562461794    3.04155192902291   19.74764840379781
N         4.96668903263093    1.15882270359651   19.12156025780987
H         5.73697630571144    0.54200142790302   19.36422013815805
Cl        7.10881154238541    0.22814999736825   21.64536912984908
Ru        7.87043242636333    1.93165383658920   20.23669255355466

