59
CSD_code = BIDGOM | q = 0 | S = 0 | Stoichiometry = C23H27NO6PdS | MND = 4
Pd        2.51298304124225    3.20122249390690    3.70776321779514
S         0.58679353098803    2.81366924834572    4.68310632826981
O        -0.71177800156705    2.99882633186876    4.06273741596446
C         0.51580385598622    3.66437822998283    6.27991613735736
C        -0.20149444428522    3.18215525484680    7.36161166131596
H        -0.70324190851396    2.22790682627238    7.30011002842355
C        -0.27193505850148    3.93673589480537    8.51872495444034
H        -0.82603422664529    3.56108937413496    9.36668822970417
C         0.35064382884234    5.17903908538502    8.60220206498734
C         1.05407269981181    5.65050822986787    7.49982043775663
H         1.53176428746181    6.61768319401403    7.54457967614281
C         1.14468644876729    4.89739279746684    6.34095522968508
H         1.68748920040263    5.27048575073233    5.47515637110345
C         0.23644445998495    5.99697710909020    9.85080345187408
H        -0.74010925796885    6.47961095552720    9.88812470442464
H         0.99884941231190    6.77062579717927    9.88104668966824
H         0.33100832489545    5.36954693725477   10.73444840670670
C         0.60168234334070    1.11878151432102    5.31231544727193
C        -0.57438573512555    0.39863187002620    5.21734658821884
H        -1.42111710448121    0.87913313991868    4.74947458624150
C        -0.64736551902321   -0.89619074486408    5.70378477612264
H        -1.56746209840232   -1.45374721734568    5.61877586576210
C         0.46584478576390   -1.46769422077217    6.30052404165396
H         0.41600966798885   -2.47389232967680    6.68769122886530
C         1.64798573979423   -0.75672444814190    6.39201124170655
H         2.52220441626210   -1.20028139384718    6.84192625034470
C         1.73776010886402    0.54286331061032    5.88749294952719
C         3.02131101471501    1.22881399519176    5.95243012536749
N         3.39470664159327    2.22518032684361    5.23921723394876
C         4.76542253984622    2.57959393391753    5.57784250177830
H         5.37567575922090    2.44467116330875    4.67736555070275
C         5.12210902684386    1.53677332035935    6.65929267233969
H         5.92560283243773    0.86547034700648    6.34642744932445
H         5.37549226001124    1.97795722160722    7.62480402665155
O         3.93171774962790    0.76322913538344    6.82277738838970
C         4.84536028978622    4.06924903820010    5.97036829590895
H         4.24499521245035    4.60638097964686    5.21186660202412
C         4.26611745179963    4.34479719761269    7.35709125062529
H         3.32266486663483    3.82184513916541    7.50153519880645
H         4.08109917404521    5.40882970662714    7.46868940933866
H         4.96019229722588    4.04581658811347    8.14097312560108
C         6.28730857879149    4.55971246167060    5.87816234495653
H         6.93463898964168    3.99226990541729    6.54522863534274
H         6.33971585665736    5.60871305107412    6.15559628722950
H         6.65521627452675    4.45784360895955    4.86131900632347
O         4.31661670084593    3.32174251129624    2.68972249461365
C         4.32563917156021    2.23077616778580    2.02734650747420
O         3.51496930114452    1.31936433206226    2.21854389055388
C         5.43008419757804    2.08764777357052    0.99185355129880
H         5.70099117965060    1.04150136992432    0.88458062164080
H         6.29122078634349    2.68641704078464    1.27420740176491
H         5.04919856522799    2.45014595786355    0.03974223088676
O         1.68503030694627    4.20323114286277    2.15401111264814
C         1.90542020253603    5.42777627141911    2.41043743848908
O         2.41948409161261    5.80541103584431    3.47235361218339
C         1.47292942914385    6.42510319170291    1.35160742957200
H         0.39987800504094    6.33638134919843    1.20047350078178
H         1.97106083978873    6.19137730455538    0.41444702895013
H         1.72542760857365    7.43154444017681    1.67024809320441

