49
CSD_code = BIDHED | q = 0 | S = 0 | Stoichiometry = C23H19N4O2Rh | MND = 4
Rh        0.55646824965198    0.23462917866113    4.90167746315667
C         0.60286915275433    1.98737100681215    5.53649461211409
O         0.68915947317968    3.03240928321354    5.99540731751630
C         1.41068499767172   -0.32718085174463    6.46607390574065
O         1.82292877498912   -0.60151749859093    7.49871535873699
N        -0.50934016362735    0.72921737660670    3.34425300595502
N        -1.31916995748442   -0.00251395147942    2.67508978840042
C        -1.37877507864845   -1.32858084121716    2.81292962845929
N        -0.49213018403460   -2.08546615064212    3.44031825344370
N         0.46990583248076   -1.60127489694561    4.15930983731168
C        -0.49362226150863    2.08988334171814    2.93870215631453
C        -1.62445439195721    2.88655474211472    3.14807194176624
C        -1.56801936568358    4.22241880169598    2.78148497668610
H        -2.42936286031648    4.85196658903173    2.94936127388969
C        -0.42680038005300    4.75353216010028    2.20816204635603
H        -0.40075873545425    5.79470506720737    1.92440810166096
C         0.68463932148809    3.95512599410805    2.00715278781274
H         1.57654265077939    4.37392164081430    1.56492044755061
C         0.67076666317526    2.61682719470720    2.36868307094631
C        -2.83837682675545    2.31053705379315    3.81048941349382
H        -3.54771685263671    3.09521552373757    4.05920483006970
H        -2.55430647481831    1.78651170735246    4.72694769353649
H        -3.32934623047691    1.58981432736998    3.15835063815402
C         1.86866988800550    1.73972500911075    2.15581463739719
H         2.10167455410474    1.17954668243548    3.07956086028477
H         2.73553383552505    2.33241279621748    1.87654665962569
H         1.67334399349015    1.01378483825382    1.36549622275190
C         1.40754474940588   -2.57212577023556    4.54143157658888
C         1.02906864640445   -3.89621561754208    4.76682478846834
H        -0.00772371341022   -4.16962203828978    4.64380673165177
C         1.96684941192449   -4.82159337213511    5.17766580558591
H         1.66384211085069   -5.84020820745126    5.36958053338888
C         3.29061918258576   -4.44794844844249    5.35210409239036
H         4.01980496686939   -5.17493093259063    5.67613888776296
C         3.67713656709063   -3.14072278806261    5.10402060351869
H         4.71049500028956   -2.85046327194186    5.22250623435124
C         2.74577721963798   -2.20521441675913    4.69655089850294
H         3.04888377883446   -1.18767840874561    4.46438873910437
C        -2.45215452024220   -2.01453991809587    2.08961157481512
C        -3.39110874805893   -1.28565474488602    1.36161890165490
H        -3.30396957782663   -0.21075561519051    1.32096845965706
C        -4.41212068504243   -1.93255669141004    0.69340915950055
H        -5.13492463996680   -1.35826678490196    0.13217324628553
C        -4.51231021070942   -3.31354377941635    0.74034676613165
H        -5.31214468768954   -3.81735270371164    0.21792946016512
C        -3.58066836019695   -4.04543557433642    1.45869283619724
H        -3.65321970484001   -5.12276801623727    1.49438129703132
C        -2.55839353316808   -3.40362387203835    2.12958815963955
H        -1.82739087658294   -3.96835515201917    2.68663431847507

