86
CSD_code = BIDHOL | q = 0 | S = 0 | Stoichiometry = C44H34Cl3NOP2Ru | MND = 6
Ru        0.81329015045012    9.69047581917160    4.35599695934767
Cl        0.52371581213063    8.93059014311027    2.08826891132038
Cl        1.63986466132555    7.63252821527378    5.23611437765740
Cl       -1.96787551932245   15.28053578552445   -1.76579921321725
P        -1.38460662099835    8.88702541399787    4.52354771736381
P         3.00806507255790   10.13105021573592    3.65740111954843
O         1.02824951883257   10.83047044066153    7.10849564754887
N        -0.19524459643578   12.10597062324084    2.79205083679170
C         0.95496517297678   10.38199794139062    6.05670479236972
C         0.18759303954686   11.25881578910419    3.50659014923949
C        -0.60927763774545   12.85383774852095    1.74364925735304
C        -0.65800207471408   12.26828824017324    0.47790802988169
C        -1.07664619548179   13.01795984054359   -0.60033712966526
C        -1.44423240248763   14.34389217944993   -0.41285339216395
C        -1.39763540267513   14.92921552740093    0.84410464952396
C        -0.97868477949864   14.18331750120886    1.92756846368623
C        -1.84841574815842    7.23417987317002    3.91466457460054
C        -3.20648613886980    6.91805245572375    3.88290399812108
C        -3.61483624060144    5.67450456654046    3.44400301913417
C        -2.67608995696815    4.73660135995633    3.04026917469691
C        -1.32840923334101    5.04590858458818    3.08047494861051
C        -0.91080998362508    6.29137424882068    3.51827069046836
C        -2.12016138250585    8.81477899027504    6.18838532845002
C        -1.31551407229845    8.28770876080254    7.19533939737319
C        -1.80951240806201    8.14697947492267    8.47849990804350
C        -3.10970933213457    8.53010155201829    8.76509154098050
C        -3.91564099156375    9.04721844719502    7.76437787235022
C        -3.42844953892933    9.18706112419288    6.47710309945046
C        -2.47149111835645    9.99668524000043    3.58354133609480
C        -2.77955215152028   11.24194795376229    4.12937398185152
C        -3.49439414728879   12.16535265210447    3.39131011490489
C        -3.88460851148017   11.86448493765196    2.09507430170006
C        -3.55862013144470   10.63849161490897    1.54111286574511
C        -2.85396780223099    9.70351252830239    2.27978503432945
C         4.02596874309877    8.85304984990146    2.84964076783181
C         5.33862206895755    9.19151708509756    2.52068967698783
C         6.15455544894178    8.26795430808338    1.89828700001510
C         5.67240933735662    7.00180740420310    1.60177418048743
C         4.37032974046493    6.66537479843763    1.92555482171362
C         3.54487245768689    7.58675513353502    2.54758391599587
C         4.16473499092784   10.70785000945895    4.94055136342451
C         5.05107441589422   11.76607341326734    4.76948309801223
C         5.92370739611982   12.10570349570955    5.78815085368088
C         5.92521956440204   11.39202408212040    6.97501578716441
C         5.05245042067170   10.32945797323192    7.14470262851256
C         4.17556203756091    9.98772908965755    6.13254282277284
C         2.98050528358836   11.46167764864353    2.42210350741402
C         3.05422984889915   11.18602049719757    1.06204603299184
C         2.88557506768011   12.20626225543930    0.14157268726866
C         2.64484863351096   13.50036473290159    0.56978939441971
C         2.56226482236858   13.77806252386192    1.92594580110561
C         2.71661483993009   12.76232857353838    2.84929199750024
H        -0.36614526593868   11.23524005013521    0.36543091689298
H        -1.11944165251737   12.58033779746406   -1.58507239838893
H        -1.68755362749866   15.96060105779722    0.96909693176096
H        -0.93519836419158   14.61949777338878    2.91348950667310
H        -3.93797234767331    7.65013167764770    4.19737651915041
H        -4.66790424639342    5.43410647898053    3.41635883418101
H        -2.99968809900564    3.76483161280616    2.69679578495453
H        -0.59510339773048    4.31617384166168    2.77068958355375
H         0.14234841641795    6.52473989690241    3.55372893811468
H        -0.30188984699116    7.98429388634438    6.96261554232808
H        -1.18016789973299    7.73961321562978    9.25565485643183
H        -3.49656305684623    8.42536542118382    9.76803987952530
H        -4.93084181881320    9.34329398046446    7.98625764706155
H        -4.06407600216930    9.59596161509228    5.70375807800993
H        -2.43954858283855   11.48009197338803    5.13065146092169
H        -3.73925233082690   13.12611537967587    3.82046230416857
H        -4.43151304715025   12.59245289338592    1.51431575271421
H        -3.84827659283917   10.41070569242896    0.52596245575613
H        -2.58384064162451    8.75248090942854    1.84300697885943
H         5.71572667508136   10.17809634109488    2.75298942182439
H         7.17050598794088    8.53440252777499    1.64475655538562
H         6.31508620873941    6.28055214457035    1.11830468185797
H         3.99112403315189    5.68097329580848    1.69470878725646
H         2.52924257020394    7.31745316270918    2.79284603471819
H         5.05724044369069   12.32996946804411    3.84663941071121
H         6.60721450915408   12.93152737468491    5.65227833870211
H         6.60837534541338   11.66358753621407    7.76623239591316
H         5.05459815264589    9.76763322185365    8.06682337165910
H         3.49638731461058    9.15327183922627    6.25717919179407
H         3.22644588313980   10.17216283060203    0.72923284436749
H         2.93628977214461   11.98764052591678   -0.91482690801374
H         2.50955401123671   14.29309389162538   -0.15099661588540
H         2.36483617179607   14.78630570825292    2.26030274583198
H         2.62028689826543   12.96226631409551    3.91039147040424

