70
CSD_code = BIDKAC | q = 0 | S = 0 | Stoichiometry = C29H30NO9V | MND = 5
V        -1.15752670481871   -5.23918092305275   -7.85956875452765
O        -0.16593165078920   -4.06528662003448   -7.82938899431933
O        -2.15760368313229   -5.13720545151943   -6.48208632858028
O        -0.46912861765780   -6.56903176477340   -8.67614595081552
O        -2.25022979344276   -4.87009112840237   -9.01446774724775
O         1.23718569335795   -8.93198060693598   -5.83003968067856
O         0.93346004973529   -8.66274545300701  -10.26546905588158
O         2.99767788334395   -8.38086767479349   -7.25791743726915
O         2.84149468850318   -9.97931924950869  -10.52606977011017
O        -4.18972549999937   -3.90389182637949   -5.42333016073031
N         0.12102674950851   -6.22097022402284   -6.26037841928760
C         2.04755884717033   -7.91250428248057   -6.32269376457895
H         2.65943733167122   -7.46352965396395   -5.52334577723560
C         1.15355578090396   -6.86140077536793   -6.99882911628866
H         1.79632643548811   -6.06647643446228   -7.40962896520136
C         0.39925462911324   -7.49928466890934   -8.19126003540855
H        -0.16210314888209   -8.38363218184164   -7.83480435798636
C         1.48188182942786   -7.98258471019610   -9.16213959995195
H         2.06049820096682   -7.10855960860789   -9.51469925453354
C         2.40146766344748   -8.95797910609913   -8.40482576177932
H         1.79076112017604   -9.82642891803351   -8.11435010305936
C         3.47034063047867   -9.42134424720597   -9.39551760780245
H         4.09793308592123   -8.56272877347516   -9.67835372734854
H         4.09887645575970  -10.20562570068911   -8.97171720578248
C         0.00007257173361   -6.20052047281044   -4.99751711547860
H         0.72958781074638   -6.66991694740233   -4.32817482508389
C        -1.11885841269637   -5.53910598302259   -4.37630219789918
C        -1.19238987614604   -5.40954426531664   -2.98194787196821
H        -0.39089796973308   -5.81246333014519   -2.38057482474227
C        -2.25793569110271   -4.77228289080723   -2.39693103213285
H        -2.31002241055225   -4.66736273515918   -1.32426607767693
C        -3.28668061224731   -4.24737496289649   -3.18016458069583
H        -4.10867710962552   -3.74642651684207   -2.69343087506728
C        -3.25013137459012   -4.36744930117111   -4.55520423209296
C        -2.15447889984461   -5.02355787619836   -5.18825470216038
C         1.88437653739610   -9.79828960098930   -4.89547796222043
H         2.87147972392902  -10.08218819262152   -5.27761292420341
H         1.24402711959394  -10.68271503939818   -4.84926680876271
C         1.99199343656144   -9.14761296470035   -3.54052020359396
C         3.21473257831966   -8.72370738749792   -3.03769613364356
H         4.11750317440351   -8.90247951807318   -3.60452531304109
C         3.28219754133874   -8.07944463498818   -1.81318403532469
H         4.23794796360476   -7.75449480079426   -1.42977657369465
C         2.12831278080050   -7.85038614858033   -1.08390719513728
H         2.18230691636099   -7.34801200674721   -0.12950836578821
C         0.90405129318548   -8.26759942128626   -1.58114462205466
H         0.00074589699097   -8.09440209045312   -1.01461857885993
C         0.83618028755634   -8.90992425555756   -2.80419060413838
H        -0.11687269327227   -9.22578739072847   -3.20223670473663
C         1.94044518912374   -9.09326181407152  -11.14481463276516
H         2.51235985419871   -8.19672410787399  -11.48794757019714
C         1.30290169063802   -9.77608940963858  -12.33155066632385
C         0.03598908156925   -9.39249650460151  -12.74858800068309
H        -0.48813478821142   -8.62775227580643  -12.19782050596599
C        -0.54146188787720  -10.00006646112220  -13.84957159755375
H        -1.52860838760786   -9.70126400660550  -14.17031187968588
C         0.14151080354462  -10.98788267685735  -14.53892469776440
H        -0.31099436295332  -11.46048666152034  -15.39849174628505
C         1.40531802405789  -11.36986434415030  -14.12226309859797
H         1.94052724194734  -12.14164990437703  -14.65572948041330
C         1.98783732896387  -10.76566860428343  -13.02179686023297
H         2.96852170532132  -11.06087560293631  -12.68451631784679
C        -2.59801692896117   -3.93400313846941   -9.94752107262541
H        -2.54840842467459   -4.37142077879740  -10.95662635637276
H        -1.89846072308065   -3.08252031014516   -9.88238762207488
H        -3.62485800015711   -3.58152840010453   -9.76493474877607
C        -5.28379374605314   -3.19081800575790   -4.90195383073897
H        -5.88355871056529   -2.89976193402022   -5.76263513338586
H        -4.95860471011193   -2.29264179356891   -4.36693539615579
H        -5.88866880808481   -3.81332454733976   -4.23381684895594

