109
CSD_code = BIDLUX | q = 0 | S = 0 | Stoichiometry = C44H58N4O2Zn | MND = 4
Zn        1.05368423567924    2.72228695100344    4.13348876661544
O         2.43150393785803    0.31337985796516    6.65535982902903
O         4.80616616196986   -0.59107148431056    3.01846653276349
N         1.68775908765089    4.41445657079983    3.42244078262865
N         1.56968378719049    3.07316899134278    6.06787331007492
N         2.33196488286424    1.25951236694599    3.77384479116616
N        -0.57531745527775    1.77033770946550    3.67192705478218
C         1.89240898452569    0.04594562112819    3.81518455860244
H         2.63201143328422   -0.75455852463801    3.86096896479219
C         0.54398378947728   -0.39594045435952    3.79892396523124
C         0.38242018814377   -1.79791564084503    3.87359109410342
H         1.27727237432564   -2.40024456963333    3.94628297479227
C        -0.84005915127506   -2.40836337346742    3.86060183116126
H        -0.92678880329491   -3.48190899829024    3.92467147513295
C        -1.98344844869808   -1.60979646632391    3.75258862614347
H        -2.96094726137572   -2.07072520085862    3.72894801706583
C        -1.87612798280908   -0.25081525133595    3.67509108825050
H        -2.77281892049915    0.34286603330368    3.58359547398359
C        -0.62417836568317    0.42907664005900    3.71303707921207
C        -1.79968119767648    2.43976005122700    3.39358752345360
C        -2.64881558409287    2.84759299352402    4.43134716601092
C        -2.29132509072418    2.60055478376712    5.87796228730396
H        -1.30637533584320    2.12683994018674    5.90381757371626
C        -2.21689578314140    3.91535959578554    6.65748487745495
H        -1.43893103021530    4.55495785991445    6.24622034194165
H        -1.99116545825628    3.72376530383315    7.70576655774896
H        -3.16279562037169    4.44933751371634    6.61107816843847
C        -3.28887170860826    1.64125189028386    6.53257691262160
H        -3.31826402497815    0.69774650157532    5.99257255182381
H        -4.28984212987488    2.06603272901985    6.54024206801088
H        -2.99523306674635    1.43768893648770    7.56093156149893
C        -3.85923958260994    3.45071454855990    4.12075225883225
H        -4.52384246508653    3.75644501124812    4.91518003976762
C        -4.24026536666452    3.64450007645064    2.80814090301976
H        -5.19369539089747    4.09828058048782    2.57981407550166
C        -3.39429756732251    3.25370131374223    1.78751259811096
H        -3.69993702473016    3.40798716725256    0.76479054761223
C        -2.17103902199910    2.65737386794982    2.05711368457172
C        -1.26667862583269    2.22591003694416    0.92669569738568
H        -0.24198492028824    2.21684298274981    1.31714540259845
C        -1.32205727886735    3.18660492371498   -0.26109080028962
H        -1.26188872765139    4.21723196802986    0.07552447760439
H        -2.23903472409902    3.05275809637187   -0.83078792492048
H        -0.48584343571281    2.99638998662043   -0.92971185182932
C        -1.62365830328084    0.81345351987065    0.45120182864920
H        -1.48693437998757    0.08408389795336    1.24475779832017
H        -0.99121244446533    0.53247326605675   -0.38889459866256
H        -2.66247605272675    0.77894097299189    0.12752495273173
C         3.77271745573659    1.42015746295487    3.84392438755435
H         4.14267355147297    0.98315999817133    4.77720812316636
H         3.99437474876543    2.48824318603618    3.84475236104902
C         4.51829176701560    0.74963223933306    2.68584455468594
H         3.90262585766998    0.78566224501366    1.77512790006769
H         5.45795960587388    1.28972942646897    2.48880788394062
C         5.45492833595012   -1.28325334132898    1.98512839869575
H         5.63744383085835   -2.29222275745663    2.34906838280986
H         6.41077341592046   -0.80905286379866    1.72811535308589
H         4.83169548449023   -1.32686786534496    1.08278018665835
C         2.71042776544764    5.05725787335472    3.99375327527012
C         3.33402370713404    6.17126861641774    3.35617864162044
H         2.90728826566741    6.53225886425020    2.43326207270987
C         4.44144944623154    6.78537396626396    3.86332919027563
H         4.88406643479448    7.61526165630045    3.33071139252998
C         5.00891765278730    6.35286687019370    5.06853677127892
H         5.89673144458655    6.82706921638582    5.45667826722190
C         4.39101074371642    5.34673538618642    5.75370249112897
H         4.79025299681423    5.03364834623072    6.70937807426636
C         3.23067542079609    4.69249899542150    5.27778577710762
C         2.63409166427011    3.79379832793775    6.19375452547627
H         3.13517554503263    3.77830452965548    7.17047526564768
C         1.18815973397867    4.97715095943459    2.21706519804178
C         0.12348860829792    5.88729593187860    2.29090551603207
C        -0.52903246897964    6.18300516698690    3.62090473342130
H        -0.38362720475817    5.30134979723972    4.25832810911942
C         0.14558367612572    7.38386227418008    4.29200900701714
H         1.19796072520407    7.18576751179725    4.47959124662614
H        -0.33913788662175    7.60413596923413    5.24121823582534
H         0.06980723814131    8.26192036574833    3.65303984990170
C        -2.03100432639526    6.43420099863649    3.49547786196633
H        -2.49666411559600    5.66775188360281    2.88236332505408
H        -2.23219969497664    7.40942850651214    3.05794943414801
H        -2.49181892677282    6.41027168589898    4.48045299927892
C        -0.28808389320654    6.53556198732405    1.13578233540355
H        -1.08907093076839    7.25653937464995    1.18177275199555
C         0.32982655713530    6.28872353042054   -0.07597832735938
H         0.01634594259382    6.81998996742808   -0.96287165378659
C         1.34200227358006    5.35190734614602   -0.15014426677137
H         1.81077768252575    5.15691326141119   -1.10321255747306
C         1.77918547720283    4.67773627583659    0.98142798410387
C         2.90218663154750    3.67172878096655    0.86750882576096
H         3.02810850657836    3.19098643514078    1.84097896601065
C         4.22018111332346    4.35873644516252    0.49916890761350
H         4.49307364196933    5.09239096665738    1.25376550116164
H         4.13654231191984    4.86417708888195   -0.46036329798410
H         5.01992057062788    3.62334623705677    0.43159457323036
C         2.57206791453149    2.58215307128707   -0.15518705527678
H         1.68699496766049    2.02961339239324    0.15004091287168
H         3.40359880585201    1.88403717256647   -0.23845740107636
H         2.39361566008582    3.00630442305258   -1.14013182552271
C         1.14667361257531    2.34020603286753    7.23590969565764
H         0.11985476806667    2.62394358922404    7.47809123104845
H         1.77965269997202    2.58941708492401    8.10049678878724
C         1.16990107589715    0.82147173644990    7.00990829965976
H         0.80132820797643    0.32657769815632    7.92201116665635
H         0.51486017246016    0.56084945196708    6.17635108359574
C         3.36311233031761    0.24687707286073    7.70641691639594
H         4.21425349422283   -0.31509541434460    7.32553493132850
H         2.94314074377683   -0.27607241919293    8.57450035589497
H         3.70554803159002    1.23853688663921    8.02293347083180

