36
CSD_code = BIDPAG | q = -1 | S = 0 | Stoichiometry = C18Cl17Hf(1-) | MND = 5
Hf        4.92799612544412    8.63578700994550    7.75694222270785
Cl        2.94426037302568    5.98707453318172    7.20387685900108
Cl       -0.20943015301701    5.82138339718768    7.25541780413334
Cl       -1.84539348328558    8.37766233577534    7.93298495170958
Cl       -0.37762922246264   11.05031694612881    8.54630148823180
Cl        2.78092908110423   11.11776611571388    8.46661757220717
Cl        4.00881325320554   11.00396969122942    5.55641140387045
Cl        5.56335325387476   13.61230884025159    4.68169975524568
Cl        8.35482748702986   14.19314366201862    5.92397642874207
Cl        9.57846714847827   12.22366638103479    7.99617013089449
Cl        7.94820597026478    9.64344720206780    8.80887525852566
Cl        7.81644547576545    7.53154865654312    6.45186872208227
Cl        9.48001444134497    4.95470754279064    7.20663296167632
Cl        8.43107995939571    3.08616541363578    9.46017831591343
Cl        5.77666136877617    3.75986824248426   10.93340519315889
Cl        4.17505123725347    6.35204401370808   10.10066384704953
Cl        5.00409879301093    9.45500081177667   10.08067158870679
Cl        4.80151763026095    7.89618573622182    5.40773564827971
C         2.69161549910259    8.54613667145430    7.84280970184940
C         1.99053438203586    7.37358529722766    7.57416508396404
C         0.60114009926715    7.29575013252697    7.59446841660010
C        -0.13188557300770    8.44140743542403    7.89872900400047
C         0.52539923899643    9.63890044696917    8.17445623654032
C         1.91649193094721    9.66406196136478    8.13815084781667
C         6.06555893509372   10.46248401925914    7.13381395518687
C         5.55829014864377   11.37439007303156    6.21236318477238
C         6.23973326884927   12.52400479156565    5.82357608093640
C         7.48992080199684   12.78456247705126    6.38135393060738
C         8.03819942252941   11.90238766912703    7.31063560012743
C         7.31673961020225   10.76595561420866    7.66396905963200
C         6.08411887303854    6.80192623748830    8.31928458460304
C         7.27745407146144    6.45984555053599    7.68898753597491
C         8.01456309732748    5.32618494778876    8.01871625675193
C         7.54469142636534    4.48950823657703    9.02935597492331
C         6.35554898391917    4.79166814393215    9.69037501195482
C         5.65401704376108    5.93559376277245    9.32075938162249

