42
CSD_code = BIDXOD | q = 0 | S = 0 | Stoichiometry = C19H3BF15O3Re | MND = 4
Re       10.79706589079872    7.08040614162580    2.82890135614255
F         7.57897087413001    4.01822609837706   -0.96230764386702
F         7.96961067647786    4.33937530928331   -3.59690513918905
F         9.29425320170763    6.53191837337861   -4.54084538396476
F        10.23722975638817    8.39747489150908   -2.77257548669760
F         9.83846855905014    8.08692249457086   -0.13328387039914
F        10.75085484173516    4.27199113784625    1.57211229923851
F        10.78944329051053    1.70248892073976    2.39689453555418
F         8.44615069262761    0.39681226739183    2.94383639972982
F         6.07504624439884    1.71544891062484    2.65579934332847
F         6.03378237858777    4.27447382024122    1.82803138729053
F         8.13874334909816    6.86671704909185    3.83533544942219
F         6.03285168443064    8.21309715913547    4.84329382123831
F         3.91816460504281    8.87705055817621    3.23703567322030
F         3.96754771298658    8.18026939063846    0.59932977232957
F         6.05627708413121    6.84169603967503   -0.41597713591925
O        11.00224215424537    8.69038041650309    3.13904709485845
O        11.56055522802371    6.11704360231073    3.93063822400703
O         9.58715240095368    6.51058869273130    1.79576205244684
C         8.67174787733052    6.05130703077468   -0.45973486839465
C         8.22117417052455    5.11291424620175   -1.37985180899800
C         8.41718270579645    5.26434993652910   -2.75003633186912
C         9.09294630891301    6.38001869861310   -3.23434415049866
C         9.56772718044658    7.32906608012183   -2.33547773332075
C         9.34846099637313    7.14920482910564   -0.97459576212368
C         8.38649277359517    4.34851761132584    1.64969362523426
C         9.57246198979897    3.64635207906196    1.82416988262142
C         9.61946053739518    2.32627783744550    2.25302437776753
C         8.42887591960820    1.66218826472991    2.53063144445750
C         7.22100838024807    2.33633806446894    2.37904834016157
C         7.21738250142450    3.65931233164835    1.94710257896615
C         7.15212619118599    6.78051150420524    1.67758134966775
C         7.09763779223927    7.16886007237624    3.01069931980416
C         6.02883493707354    7.86836821537750    3.55657951761010
C         4.95432937804284    8.20774607016816    2.73977220787180
C         4.98147254061666    7.84852940795289    1.39577910903688
C         6.07299515398079    7.15053077917614    0.88480361264464
C        12.50856839937251    7.04716802129508    1.47209753018019
B         8.45064626236396    5.91258319265523    1.16019940171302
H        12.62604976775234    6.03605993057188    1.09053892567815
H        13.40240982656083    7.34408420468906    2.01661546138078
H        12.32219778408559    7.74723031774141    0.66148122165136

