56
CSD_code = BIFDOL | q = 0 | S = 0 | Stoichiometry = C21H30O4Ru | MND = 8
Ru       -0.65636674971035    2.16157496413103    8.15786796127924
O        -1.74376109440908    0.38406885537139    8.61107616938534
O        -2.48907861614943    3.07177355726874    7.78744991872500
O        -1.13858713996360    2.43619982510199   10.16310662013686
O        -0.13479801549587    4.22904972110213    8.10494814798026
C        -3.48218156717352   -0.88898562085081    9.56772611550047
C        -2.95130924995987    0.39521017872520    8.95054874965761
C        -3.87606896243114    1.43131644337044    8.79464198378833
C        -3.59711144997911    2.67481062221715    8.22613109078428
C        -4.75396114412700    3.65079042507689    8.09995187127750
C        -2.03753491230367    3.47568689207728   12.08051014721865
C        -1.41140896442441    3.53934899519080   10.69818177476698
C        -1.18213019981767    4.80848038803799   10.16506289649647
C        -0.57934718741940    5.06269225151970    8.93020509640774
C        -0.40631009858763    6.52682066209148    8.55819145465188
C        -0.63713857165936    1.19897585372967    6.19062740181540
C         0.19805910967551    2.29886024232940    6.08035577159461
C         1.72078189890126    2.17488707919525    6.16898788974666
C         2.20196360822970    2.76261188028750    7.49814960880334
C         1.48491778945044    2.01987348787264    8.59764633044107
C         1.04859090972889    0.71620416813415    8.42607673248123
C         1.25496197539018   -0.04384128033606    7.11391148114154
C        -0.08848497945096   -0.19095601822727    6.39484597567856
C         2.17097691492072    0.71611024794115    6.15773797580229
C        -0.28259273523692    3.52525500628283    5.34469952417397
C         0.86287376471840   -0.16968785089550    9.63306255586732
H        -3.86017868754040   -0.68652618169347   10.56689301885238
H        -2.68597712464177   -1.62616194917886    9.62851331633253
H        -4.29698160748194   -1.28424433709302    8.96544109498951
H        -4.88476665004549    1.25534688392396    9.13632090099852
H        -4.40758456147441    4.56622794999798    7.62803812393501
H        -5.14913474308178    3.88195670726116    9.08597652001178
H        -5.55142441685764    3.21400387670818    7.50370101901125
H        -2.17355328924538    2.43703973212958   12.37126164320763
H        -3.00235030807619    3.97777247904927   12.07191984173447
H        -1.39694473304549    3.97438507767630   12.80472953906155
H        -1.49260507460524    5.65873976696878   10.75322231718988
H        -1.38341193314432    6.99421830861593    8.45802129336889
H         0.12588874413067    6.60756113363403    7.61397770078556
H         0.14721831787575    7.05010992504125    9.33448245396148
H        -1.62744379895169    1.25091934527089    5.73258379899769
H         2.16834704980989    2.72199228087914    5.33281100925450
H         3.28525606403850    2.63746129904220    7.60679894207429
H         1.98312921354467    3.83014202407493    7.55455549386070
H         1.68864847305645    2.37003775932317    9.61206381371310
H         1.66964410316822   -1.03162654399548    7.34003387242975
H        -0.78276038609408   -0.79127017419907    6.98502916317959
H         0.04294203971958   -0.68760607786155    5.42682061821294
H         2.09564810809510    0.28753172008713    5.15643998953391
H         3.21385979008590    0.64960289933747    6.47377240394479
H        -1.35280440999525    3.66289426448016    5.48489080322413
H        -0.07623123063070    3.41291918775225    4.27786410502806
H         0.23001200360644    4.41491672906611    5.70145126104926
H         1.81181110361837   -0.65178095178668    9.87866412632556
H         0.12637056003498   -0.94396003098425    9.43422477715924
H         0.53032305141154    0.41246591972712   10.48999579297005

