50
CSD_code = BIFDAX | q = 0 | S = 0 | Stoichiometry = C19H26O4Ru | MND = 8
Ru        7.69948787061897    3.20825571619676    3.12817743405949
O         5.79573820682823    2.53745926865606    2.43016437558154
O         8.42669080400073    1.32563253795276    2.64096127785885
O         6.95111238579030    2.27431375377865    4.82421725519708
O         9.59856594706632    3.22795676509807    4.10462693176197
C         4.01412025533713    1.02716551162540    2.11526312984496
C         5.49031837597103    1.32543973262262    2.31917574083596
C         6.34917511917847    0.22380075628709    2.32202422192952
C         7.73619880109148    0.29194892633389    2.46481612055843
C         8.50282733949339   -1.01591172579441    2.38231133276419
C         6.84450829962554    0.86505406339731    6.71026280714504
C         7.62860063387024    1.68814185199426    5.70384159163901
C         9.01515632587157    1.72889721907956    5.86066542528069
C         9.88854538196573    2.47417736531509    5.06496724495270
C        11.36205274974900    2.39760210039648    5.42913051753801
C         6.46709190236656    4.98017803885473    3.58168675096303
C         7.78547884834499    5.33182531684277    3.78920000045258
C         8.60119868512970    6.14991051184584    2.79441769150657
C         9.66988905965396    5.25810458702722    2.15485670643188
C         8.95056466115035    4.08766330760935    1.53899606013929
C         7.63548126200458    4.19635733594537    1.13456144113796
C         6.83506625791451    5.49077258436160    1.22497803222343
C         5.75879573161874    5.35065776374156    2.30590354017574
C         7.72397462149614    6.65722662585309    1.65169507723601
H         3.86348424387388    0.52397749740626    1.16280117261122
H         3.44613667505626    1.95361209614515    2.12971739925166
H         3.65858362986957    0.37445530601461    2.90888542353824
H         5.90873776768491   -0.75353899192302    2.19738949034189
H         8.19371621948203   -1.67402154382562    3.19144515368519
H         9.56838229158722   -0.81851408946103    2.46629563340579
H         8.29729087934397   -1.51283978506728    1.43714573356805
H         7.16175416405961   -0.17428724409833    6.66372807425209
H         5.78332106520859    0.92913139169990    6.48377665530391
H         7.02446985342171    1.23488789909418    7.71707305420362
H         9.44325661357739    1.14559045614264    6.66141249083054
H        11.70686111469446    1.36970439637640    5.34604175452743
H        11.51132835925825    2.72858850002084    6.45432755229196
H        11.94030361923733    3.02591910473804    4.75685737395110
H         5.82762776405997    4.76688330897321    4.43796336522657
H         8.16422539834747    5.35375792996369    4.81189574580813
H         9.07261508506345    6.98550634947415    3.32219536475018
H        10.22837474121216    5.80685092407809    1.38924012905312
H        10.38151254020696    4.90412535913400    2.90180898412564
H         9.58286689361789    3.31304026587415    1.10570957984681
H         7.25147966710865    3.47606073794112    0.41102354661558
H         6.37131463746523    5.69145406949152    0.25356595330648
H         5.21033961584779    6.28976672680515    2.43420923736028
H         5.03963851274811    4.57398380356488    2.04273402105015
H         7.10399304351794    7.49657482352341    1.97172483404297
H         8.35204607831132    6.99840079288731    0.82683156983465

