53
CSD_code = BIFDEB | q = 0 | S = 0 | Stoichiometry = C20H28O4Ru | MND = 8
Ru       -0.15401691452469    3.22898982943856    2.92426418592259
O        -0.85382382682390    4.76491929830071    4.13556135901161
O         1.77150612839140    4.14085925792426    3.04561059732705
O         0.60609620381601    2.42690060414952    4.68967315269851
O        -2.05659859446773    2.46033938736473    3.52813107661913
C        -0.89081934242237    6.36961356113082    5.86245818522832
C        -0.14483530884577    5.50153211557338    4.86434604367686
C         1.24624413638193    5.61795769412650    4.83932719128015
C         2.09219738306963    4.93804752002472    3.95972160073379
C         3.57758833402787    5.23138434893881    4.09519186357189
C         0.72884629677977    1.80292054885087    6.95938910947266
C        -0.06475248687171    2.10209072680267    5.69949974439742
C        -1.45279214899075    1.97898141565544    5.78092796649605
C        -2.33643778706027    2.16869066152126    4.71579360495007
C        -3.81052364577125    1.95574392836730    5.01977087153289
C        -0.12065264140726    4.23579216966127    0.91099512349983
C        -1.42377719678615    3.94351332805484    1.27781994346697
C        -2.15000478487461    2.73952971298259    0.73571888983772
C        -1.08522479623597    1.69272077108803    0.40177469368938
C        -0.25368048414429    1.40975765379879    1.64709979903431
C         1.06434835043592    1.79537904662039    1.77984978378422
C         1.75297133211447    2.58361965710377    0.69780816373562
C         0.66610467789871    3.35080158315985   -0.06134214474678
C        -0.22751757088561    2.29483937137689   -0.70900959868402
C         0.37161084649820    5.66224106334496    0.98847380640193
H        -0.61922785357656    6.07796251291740    6.87487803046872
H        -1.96170367671373    6.24004368377730    5.72750759668239
H        -0.62820182255004    7.41580375331270    5.72376102739260
H         1.70215473721249    6.28558224054727    5.55438447570253
H         3.76095993704971    6.29808244891906    3.98888181086954
H         4.13115749978411    4.68862206960926    3.33337306577973
H         3.92310655874033    4.91949119409482    5.07797780812057
H         0.50183956364854    2.55011734912798    7.71733079000969
H         1.79212127674163    1.83419708704731    6.73494575012177
H         0.46440354852181    0.82375996145015    7.35123121302909
H        -1.87383520112297    1.71049503067695    6.73763451883406
H        -4.12921819228145    2.65145965826261    5.79236620803319
H        -3.97528734265751    0.94268102596900    5.37982286669077
H        -4.39905468064955    2.12183276010943    4.12131122147179
H        -2.06143533464041    4.75582234270839    1.62780260340947
H        -2.72010404819440    3.01558025866685   -0.15800976233565
H        -2.85207891104010    2.36040091456133    1.47893464185394
H        -1.55689003345270    0.76288844718645    0.06713836811276
H        -0.62088579787400    0.58593009189544    2.26013480687231
H         1.71688836941375    1.25170511415382    2.46273392709419
H         2.29489754009422    1.91103778889602    0.02430562233288
H         2.47777861228677    3.26637867690907    1.14285984446867
H         1.12215909592419    3.98905650669338   -0.82530051022152
H         0.39077202582372    1.53343323331954   -1.18806296192547
H        -0.87007613123055    2.73561795949262   -1.47349435622500
H        -0.10703072824650    6.19540504087257    1.80899941537600
H         0.13249754091925    6.17718352045344    0.05504031531641
H         1.45033728876652    5.69936407301258    1.12705664972756

