61
CSD_code = BIFHII | q = 0 | S = 0 | Stoichiometry = C27H20CoN7O6 | MND = 6
O         3.19303889002528   14.62720514473154   13.85762232486762
N         4.37164562961549   14.94305142527563   13.75480041890306
O         4.97465703284101   15.56245883787229   14.61760033232929
Co        5.22930346628691   14.29708419887194   12.23916908972162
O         4.70887093992079   12.35415258024299   12.72558029569987
C         5.66589411834524   11.77955391726423   13.27224172095048
N         5.69648946676679   10.45668771137119   13.43358073239510
C         4.67618944641033    9.61358870225542   12.82956296157852
C         4.52955036258327    9.91063059956623   11.35737001970692
C         5.61745214953708    9.97795771971411   10.52519604728580
C         5.47975162425410   10.33340527125387    9.17532240816137
C         4.24942635684538   10.62216420575872    8.65647321336079
C         3.10202428275768   10.54291260744906    9.47003244721563
C         3.23838723264854   10.18083711078493   10.83934725839039
N         2.17460533086895   10.09076656550605   11.66339612461348
C         0.98871351619392   10.34841964338873   11.19064673889204
C         0.73946916726142   10.71497821644324    9.85557822352127
C         1.80071825511493   10.81226006896639    8.99693803375475
C         6.79032104343283   12.62043964039921   13.74778331930399
N         6.65545554786930   13.85922689991231   13.26430341725819
C         7.54043673749096   14.81698062634546   13.52031614850104
C         7.25575766337457   16.07489620904932   12.75104440972001
N         6.14591549348237   15.89855405736831   12.02169131085015
C         5.75454649437348   16.91546957010218   11.08607928622440
C         4.28072253747680   17.20738456762912   11.08428543180106
C         3.32123090468057   16.16053082898972   11.04186135622397
N         3.68134418300432   14.85917932306692   11.22429000566811
C         2.78964263226115   13.91197571647637   11.03092348219124
C         1.45209541052086   14.16220780697322   10.70803440250669
C         1.02499484183168   15.45811267363363   10.63764707027585
C         1.95871745644458   16.49967236798686   10.79709567970451
C         1.57180269129811   17.85259793714726   10.72005454134780
C         2.50278389223246   18.84245162831990   10.85117690387977
C         3.85447797524699   18.51156079829224   11.00718376965835
O         7.98328556718378   17.05607214040423   12.76109883506282
C         8.63333634578597   14.56787875085770   14.33930109761303
C         8.78265970848392   13.29742889639382   14.87429307167204
C         7.86111799076055   12.30127858561412   14.57038817030589
N         6.02314849356873   13.56278370704969   10.72027962725241
O         6.74714502532293   12.57763280856773   10.87491636345362
O         5.78678563538694   14.02940782817674    9.61519505087503
H         3.70920290843745    9.80990289868010   13.30296566836495
H         4.95713698441933    8.57215849511901   12.99422162491772
H         6.60715776338891    9.78481624617563   10.91145583366363
H         6.36297264959576   10.39976292855647    8.55958771733918
H         4.13746988789207   10.92001818371452    7.62417942679159
H         0.17186849989717   10.26191857015948   11.89636639321180
H        -0.27118276694317   10.90637982543183    9.52753792523090
H         1.66328030495218   11.08883315290747    7.96064794835966
H         6.32226341588142   17.82382845527767   11.31455291262301
H         6.02118603685819   16.58205505994118   10.06951288910882
H         3.11790940909391   12.89099897440826   11.16478814063200
H         0.78019892245275   13.33112233956086   10.56775616423817
H        -0.01234926470003   15.70252554437756   10.46117560689219
H         0.53005839454380   18.08261086198847   10.55374277629660
H         2.21123084375359   19.88084179309046   10.81009432210886
H         4.58476450429252   19.30523171050850   11.05540208986559
H         9.33414856153733   15.36394962014825   14.53250082713805
H         9.61733902015560   13.07518761302393   15.52165097789478
H         7.97359609413079   11.30940276983409   14.98026313539350
H         6.52833629058306   10.02741706163058   13.80309647722138

