48
CSD_code = BIFKOR | q = 0 | S = 0 | Stoichiometry = C22H17Cl2IrN6 | MND = 6
Ir        3.12192540497208    1.88433358601598    1.86317915346895
Cl        2.35127596944410    0.52270244776260    0.10585478039048
Cl        4.11716453289496    3.24160599718988    3.52834702026948
N         4.32690575034850    0.34797535272748    2.57265922970301
N         2.59548849027464    0.25122161872083    4.12973025901943
N         1.96221451844286    0.97295258135888    3.28168120638697
N        -0.28863691386365    4.04353693710694    1.11226094796770
N         1.94267850512620    3.39577440164491    1.27745930644308
N         2.25754714015019    4.05780253992084    0.25366054022177
C         5.48444650941461   -0.13120393737010    2.14220721717738
H         5.78378185528673    0.16227978576503    1.14688118840568
C         6.27520656407602   -0.97692737696323    2.89977659765915
H         7.21010296753058   -1.33596288817215    2.50130529321381
C         5.84790136118464   -1.34427607043156    4.17158075961670
H         6.45778912999064   -1.98108823081094    4.79379853976593
C         4.62108033015099   -0.89881921238974    4.61135576483926
H         4.21338290911804   -1.17022021107684    5.57081392822720
C         3.86663609973888   -0.06688745320210    3.77735167163682
C         0.61428895626784    1.13750789882292    3.56421340749331
C         0.15569378826939    1.22655216229751    4.88125413376639
H         0.87534296536703    1.18649111686804    5.68444588981276
C        -1.19065538291624    1.40018494193695    5.12557608285387
H        -1.54424649214699    1.48879214064061    6.14201297210378
C        -2.08943685418505    1.45662516685156    4.07044666665710
H        -3.14274146078242    1.58939987421974    4.26706163789668
C        -1.63874957706642    1.33771306429893    2.76386654461302
H        -2.34015110768041    1.36441015427722    1.94410779207740
C        -0.29205825314378    1.19058405243766    2.50165644838070
H         0.06857945193165    1.07556927028829    1.49062265345727
C        -1.40838507851906    4.46851944947441    1.66213216205075
H        -2.23007956077210    4.62119144827782    0.97550178129183
C        -1.54576010688704    4.71211704626537    3.02068088248686
H        -2.48372199698322    5.05661049262315    3.42618134957487
C        -0.44152843722818    4.51421462794319    3.83653672048403
H        -0.49525797873372    4.71566335707132    4.89602952805020
C         0.73663435698754    4.05711753659584    3.27593643021229
H         1.63054780791605    3.91642038741723    3.86293884235645
C         0.75472982265017    3.82512529953782    1.89948895886754
C         3.48141120693371    3.77111067934167   -0.26150503955935
C         3.95475280669125    4.48293869351169   -1.36973930565101
H         3.29392117709868    5.17563137196181   -1.86607056512011
C         5.25072461396981    4.27893938899056   -1.78449701461767
H         5.64298721406228    4.81144563326442   -2.63782502308475
C         6.06377377023704    3.39563803437385   -1.08347388349764
H         7.09191211040277    3.26141104320485   -1.38902049757536
C         5.58132455016962    2.67923335921357    0.00408866668251
H         6.26433714737839    2.02223812769058    0.52274393275080
C         4.27241941653588    2.81990431248877    0.43510444081610

