47
CSD_code = BIFKOQ | q = 0 | S = 0 | Stoichiometry = C20H18N4NiO2S2 | MND = 6
Ni       -1.29416774869689    6.87841507931286    7.39576522363281
S        -3.12563805127820    7.66567173785783    8.47837219589917
S        -0.44216453708468    8.86412055738402    6.75469951354433
O        -3.17704507067036    7.29439634380990    5.93676262421872
O         0.08654398561836    6.47975471377790    6.06186795957906
C        -3.80818329572088    7.71940730365342    6.89867277104691
C         0.21682039641934    7.67479072406900    5.73968543454361
C         1.46304398703878    7.13719586149493    3.71756712653547
C         2.04039244182728    7.84048693331767    2.71026641039204
C         1.82131567053804    9.21989047871343    2.97638611121511
C         1.11890169271396    9.30500853465028    4.13542536690969
C        -5.75222712344666    8.33453413045874    5.56899747770009
C        -6.97362497453812    8.87802860458392    5.80725608253402
C        -5.89029578892965    8.72333121883683    7.76229124680596
C        -7.06146761377586    9.12578827127242    7.20354041392106
C         1.31329799237905    6.21795508102485    9.11757800541337
C         0.06508561465373    7.86515301609626   10.08439694505985
C         1.14227945492627    8.30871482788765   10.83355463505165
C         2.36079973915626    7.66379213826491   10.69636000022730
C         2.44563768661384    6.59267904972144    9.82151559665488
C        -1.98301542341812    4.40862388678001    8.74192402886237
C        -2.40990126513106    3.09493686911419    8.82740059148355
C        -2.76824756200247    2.42798905212683    7.66652079651961
C        -2.68120580829764    3.10791684079814    6.46290469206638
C        -2.23905404763996    4.42046787105112    6.46271596432749
N        -5.08076000239747    8.23467900687832    6.76628686264512
N         0.89528783376450    8.03058126011940    4.59909131412307
N         0.14279040955505    6.84216393928985    9.23420156586231
N        -1.89705049226550    5.05726885658902    7.58200449598386
H         1.39592540513005    6.08359582153814    3.90109659983586
H         2.56391874564343    7.43371519539291    1.86780933559910
H         2.15038747471202   10.04037215125144    2.37021963531428
H         0.75311602199710   10.15432073940318    4.67660997662257
H        -5.28606675201564    8.00767103537901    4.66145043023204
H        -7.73239590444801    9.08461935581081    5.07845980242993
H        -5.55265397290997    8.73803533093196    8.77900722229762
H        -7.89890915578541    9.55241854110463    7.71936196166168
H         1.34104579152258    5.38507246796510    8.42572268212204
H        -0.90471909834225    8.34178473656382   10.16198525921138
H         1.02724903999305    9.14421331048376   11.50600199575658
H         3.22464171453892    7.98669294846581   11.25901508695192
H         3.37264686211813    6.05727519081662    9.68478460128076
H        -1.70750753059083    4.96775632695607    9.62653667246123
H        -2.46445915580411    2.60900369790010    9.78868775380504
H        -3.11080515294156    1.40450607328925    7.69995424828691
H        -2.95293483312627    2.63258426988873    5.53361643935084
H        -2.16622759957913    4.98352061790805    5.53926884402119

