111
CSD_code = BIFLIM | q = -1 | S = 0 | Stoichiometry = C43H61Cl3O3Ta(1-) | MND = 6
Ta        9.20212644945578   12.98789214233976   13.02776569109587
O        10.60967393651030   13.45568603935876   11.80492068669762
C        11.15705748816855   14.30077633739817   10.93417390598934
C        10.49015031642394   15.51686042324019   10.63298134615896
C        11.01664264297228   16.42215342627358    9.73598930667301
H        10.46056307765419   17.32585220591081    9.55142702092550
C        12.22164560076911   16.17386917486871    9.09667994578315
C        12.87266713109035   14.98267585261421    9.39885825372183
H        13.81146099581202   14.78473186074472    8.90949228354946
C        12.38548269479387   14.03935054854612   10.29134358544296
C        13.14093485121811   12.75147795236759   10.59126467745016
C        14.45232627890752   12.62986306729441    9.80475979852226
H        14.93514256222189   11.68976522666889   10.06610309818503
H        15.13862334312105   13.43776770045541   10.05156715051308
H        14.27158447910148   12.62586630417615    8.73147229806991
C        12.25844298955206   11.55264845714411   10.22127282306017
H        12.00197859866658   11.58477059564450    9.16315000620180
H        11.33887674843685   11.55312052489179   10.79909934345392
H        12.78409178604400   10.62178653511753   10.42517705749906
C        13.48387899442781   12.71119051207430   12.08590461076930
H        12.58285272935458   12.72386551252078   12.69203877044070
H        14.09491817802696   13.57141531708390   12.35637834751645
H        14.03545566320679   11.80302494618945   12.32120817258891
C        12.84918064081610   17.14236332948233    8.10345803678187
C         9.20187879050970   15.70207116252174   11.38075064626692
O         9.20180398532032   14.70674371274416   13.87728629212513
C         9.20201928592453   16.03612543887120   13.80863885711256
C         9.20189082970772   16.66382950382596   12.53361251876782
C         9.20179659729925   18.03437456420696   12.41657828321603
H         9.20169036607429   18.45911894152725   11.42459940741055
C         9.20184351979784   18.85418287976539   13.53931734716750
C         9.20201643762016   18.23647136426383   14.78109351163583
H         9.20209400976909   18.85413747780238   15.66073026349881
C         9.20207483216211   16.85672308149751   14.95365822502863
C         9.20214948058002   16.22412617946469   16.33947075566951
C         9.20215130442395   17.25927419450653   17.47157715195387
H         8.31453710192364   17.88784230367546   17.43402803288668
H        10.08989492326293   17.88767128642676   17.43418344808967
H         9.20201139026677   16.73723428637983   18.42693015902231
C        10.45909964753640   15.35853458649571   16.49518578518436
H        10.48095497337611   14.90128884809089   17.48250567179096
H        11.35420037761201   15.96682792347631   16.37180373987086
H        10.47821934645101   14.56306458515449   15.75604809816838
C         9.20166301616534   20.36570029458512   13.35700250446328
C         7.94639280984024   20.77507406942427   12.57322466499422
H         7.92076177158434   21.85491177212534   12.43234556122103
H         7.05288926741342   20.47384110748352   13.11582541850802
H         7.92290758134537   20.30169444357309   11.59602464573250
C         9.20166785911126   21.12816153505791   14.68489810581724
H         9.20157713916478   22.20000482967385   14.49031788778751
H        10.08747170487741   20.89167022757820   15.26954243989154
H         8.31594884403236   20.89153045643348   15.26961719820831
Cl       10.81336139610938   12.28304588827014   14.53851417304082
Cl        9.20238356264157   10.85090853325618   12.13139608887672
C        14.21131920652862   17.60313436340387    8.64112462942612
H        14.88602333952512   16.76177814052931    8.77163758739341
H        14.08534671474859   18.08949991449224    9.60604191560978
H        14.67290048170709   18.30983177235350    7.95260453335544
C        11.98459412149023   18.38528428667937    7.87276218499376
H        12.46970558569068   19.04037019132637    7.15012179176325
H        11.85207813770750   18.94271436079941    8.79690355210301
H        11.00892622676137   18.11092126922823    7.47870305068108
C        13.03667954650984   16.43785662025175    6.75242790957902
H        12.07736237053095   16.08547166883476    6.37961258590359
H        13.69970706185788   15.58228836610913    6.84332928026733
H        13.46293421053661   17.12451262864439    6.02211552483624
H         9.20194940098027   14.79211416993182   11.92799269542562
C         7.91355323298474   15.51675645286672   10.63311903144290
C         7.24679682191833   14.30060911204660   10.93439778636981
O         7.79424050868987   13.45570035368948   11.80530728225161
C         7.94526533218261   15.35844659960331   16.49524788960746
H         7.92358473873793   14.90107741533273   17.48251357592032
H         7.05012127618169   15.96672511209443   16.37209238947248
H         7.92607308303377   14.56306188813948   15.75601053686655
C        10.45670443181893   20.77537149428288   12.57301839284813
H        10.48211508114628   21.85522711700433   12.43223540059366
H        11.35036695311767   20.47424625509293   13.11541585752347
H        10.48007588251193   20.30208764387037   11.59576872031178
Cl        7.59081731122147   12.28360932783404   14.53872263400097
C         6.01833524659407   14.03907136605406   10.29166578364891
C         5.53099843869891   14.98233546184281    9.39919111435437
C         6.18188685596861   16.17358105860632    9.09693025637373
C         7.38690727091432   16.42198960360455    9.73615387439435
H         7.94288350696788   17.32574189498649    9.55154254544411
C         5.55420598157027   17.14199252031833    8.10371549909971
C         4.19209365217825   17.60272540017764    8.64148220555190
H         3.51743801396681   16.76134352623913    8.77208101679485
H         4.31812395651262   18.08913190463440    9.60637150337366
H         3.73042183537559   18.30937825003534    7.95297711931291
C         6.41870450548381   18.38494726640348    7.87286243915165
H         5.93354041988102   19.03992047321237    7.15015457349824
H         6.55120199728511   18.94249392562812    8.79693680094135
H         7.39438295407760   18.11060176391368    7.47881762561665
C         5.36661638812952   16.43741013735377    6.75273726280880
H         6.32592060428907   16.08507499855734    6.37984244637429
H         4.70365684004158   15.58180122640245    6.84374441331057
H         4.94024021177307   17.12400150576757    6.02243509049264
H         4.59217633216517   14.78430837601157    8.90991105454211
C         5.26297160006508   12.75117144837719   10.59168611538657
C         3.95151401256562   12.62947208642791    9.80530047845783
H         3.46878005357384   11.68934622399075   10.06669426407885
H         3.26518724958472   13.43733514767932   10.05216212558140
H         4.13215197559181   12.62547424876348    8.73199559200588
C         6.14547438244692   11.55237047462716   10.22163573211077
H         6.40181819562734   11.58445980440220    9.16348320505445
H         7.06510490094363   11.55290847776276   10.79934958061289
H         5.61989890912691   10.62149162914324   10.42564512180696
C         4.92017537374132   12.71092659093790   12.08636116673055
H         5.82126201891667   12.72360935561692   12.69241142967256
H         4.30915788269474   13.57115840910551   12.35686719480673
H         4.36861704646763   11.80276944842533   12.32173552957587

