30
CSD_code = BIFLUY | q = -1 | S = 0 | Stoichiometry = C11H9Br3N2O4Re(1-) | MND = 6
Re        4.43959662355772    2.85808093801749    9.09285559103029
Br        5.69884548625970    0.87247682945819    8.03925254550362
Br        2.39571630379583    2.47546939735175    7.55337106978403
Br        3.42021419770954    1.34820402439829   10.99056943498987
C         3.18530538263811    4.07683161125439    9.99046118071018
O         2.38425294540071    4.70193526595411   10.50895924118245
C         5.93078894308732    2.95400736731224   10.35319135044489
O         6.78543500398914    2.95557076938736   11.11145620284476
N         5.12795475451537    3.94185313905194    7.84563097686409
N         5.54057198718228    4.73042767801174    7.06254376555100
C         6.13403187613285    4.69459644505189    5.84056821641688
C         6.40454161240145    5.90813050933380    5.19529581775914
C         7.01603456637249    5.90124494398503    3.96478414088605
C         7.37242285186721    4.69442766737611    3.35581467074336
C         7.09619380154787    3.48695760923063    4.00250106588240
C         6.48300642323382    3.47758519212089    5.23285774108497
C         8.03314010089068    4.74323022129178    2.03951188288489
O         8.27802851799396    5.76205232774659    1.43208998550216
O         8.35797528392210    3.52063136002470    1.58125536605639
C         8.98597503641590    3.45784208308919    0.30676205472137
C         7.96296221858540    3.49172151244798   -0.82107860506561
H         6.12360276120039    6.83279806843409    5.67581821264605
H         7.23401551631039    6.82319277466023    3.44666388025904
H         7.36722735951826    2.55596507577923    3.53055056250956
H         6.26996402597285    2.54628358960048    5.73736550160132
H         9.68122804321162    4.29933900464954    0.20955309827818
H         9.53933775310200    2.51572554527224    0.30710347589927
H         8.46654777910789    3.37736968591539   -1.77722763612265
H         7.43496402395178    4.44211224027218   -0.80994038255176
H         7.24251882011977    2.68673712355588   -0.69694040836386

