75
CSD_code = BIFNIO | q = 0 | S = 0 | Stoichiometry = C20H48Cl2P4W | MND = 6
W        -0.91032250797048    6.47840448222190    4.05900740841819
Cl        1.23543572371170    5.52051935174420    4.61004474587234
Cl       -1.31861613819347    7.53254135287483    6.21472043956207
P        -2.82519383941523    7.93142842679356    3.65065642714731
P         0.29241177068724    8.43522155905366    3.39458972835911
P        -1.97983535155515    4.54287004855232    4.94645672561567
P        -0.78060371325831    5.06705838860468    2.10703704258285
C        -2.15171640562405    9.65934651301491    3.67029769377214
H        -2.90138705993474   10.38314578828776    3.34203891043375
H        -1.89605611999419    9.86277689015991    4.71461194352604
C        -0.89594737748286    9.72943233015712    2.81670181816131
H        -0.43842922002579   10.72151586293507    2.86618895173960
H        -1.13192002902928    9.51667691133703    1.76857217192176
C        -3.75016900456096    7.88893400266731    2.04023386363463
H        -2.99827294294808    7.95734245078039    1.25168272787454
H        -4.18177628284483    6.88252060958834    1.99352480408142
C        -4.84562855277920    8.91762728961245    1.79109733358495
H        -5.65142258196558    8.82037943937958    2.51349703641160
H        -5.26666374957454    8.76357416512912    0.79798161404091
H        -4.45755495180556    9.93235055706316    1.83194871813528
C        -4.22621725015444    8.03173791858090    4.86689717615132
H        -5.03559885502851    7.42345112622708    4.44672585590029
H        -3.86487628415090    7.53835710904368    5.77172331102850
C        -4.74329615641983    9.41463973853478    5.25135078089552
H        -3.97984345065682    9.96882619715355    5.78984229223306
H        -5.60074463727899    9.29946878324240    5.91307015855399
H        -5.05756500293870    9.99727483050608    4.38995107562786
C         1.17620546973857    9.25309921177185    4.79063280006100
H         0.43245143559957    9.36218487674558    5.58714599877950
H         1.89513322586331    8.50005533748692    5.13644341847432
C         1.87510365035490   10.58370131902316    4.54072433858549
H         2.63899946344211   10.50081503911076    3.77133585311271
H         2.35893689708291   10.91286903524104    5.45899905878470
H         1.16853115557647   11.35620425513105    4.24391773007195
C         1.53907198701928    8.53774600659971    2.03267684370141
H         1.07148981064455    8.08394826966610    1.15269124990640
H         1.73204297761265    9.59038992883109    1.80190114735951
C         2.82627137752461    7.79970074782216    2.38058414258536
H         3.42202560362898    8.36869187077741    3.09022820865176
H         3.42931650531544    7.63195057472349    1.48907576683311
H         2.59623969597942    6.83640754161829    2.83450771317583
C        -2.45105022486035    3.39206471478193    3.57658825496740
H        -2.67199604023142    2.39330161873795    3.96456191338062
H        -3.35418531178278    3.79814583178148    3.10809991781867
C        -1.31128229984413    3.34261302461048    2.57232916845490
H        -1.58975153358109    2.76467922591265    1.68603909853239
H        -0.43629714727952    2.87699480248256    3.03799134036892
C        -0.95835990551518    3.43320272523327    6.00233348808856
H        -1.48574361839215    2.49124268451528    6.18472048186028
H        -0.04961087840967    3.22107068956297    5.43011008369842
C        -0.57916417158352    4.13016257405594    7.30301352853518
H        -0.11149313066079    5.09002062516899    7.08361290137527
H         0.12993954489441    3.52854942991211    7.86917251829487
H        -1.45359668747104    4.31300393241990    7.92504227530772
C        -3.56098759430881    4.66550249788952    5.89132819809475
H        -3.36620797760729    5.36867273449944    6.70796014998202
H        -4.26711030140603    5.14747165761027    5.20566882656647
C        -4.16194202610067    3.37693093550378    6.43866188275158
H        -4.34082799144260    2.65663222502616    5.64340139303846
H        -5.11593888962154    3.59439613346170    6.91717968815612
H        -3.51229078897707    2.92191363600456    7.18155014695246
C        -1.77040495866117    5.29546249774149    0.55368950256364
H        -1.73475704100208    4.37829978306285   -0.03943615156561
H        -2.80651393201298    5.45447845759669    0.86237483738077
C        -1.26459044232178    6.48438327267457   -0.25191627215278
H        -1.05474714077858    7.31959303231366    0.41804573839458
H        -1.99986431631492    6.80085437559605   -0.99024900706753
H        -0.34456038435492    6.23447120123336   -0.77543050577281
C         0.90068973843262    4.71059321629128    1.42775092023159
H         1.28634936242012    5.65997443751145    1.04474273001424
H         1.50530614244692    4.44615155570657    2.30139703195061
C         1.01192554685525    3.62814779164028    0.36065945227754
H         0.65012055723457    2.67120859143205    0.72741046789443
H         2.05790434283050    3.50606078191374    0.08398544557571
H         0.45763021526614    3.88806316834485   -0.53810447122393

