85
CSD_code = BIFPIQ | q = 0 | S = 0 | Stoichiometry = C22H51BClNO4P4W | MND = 6
W         8.13577534872338    1.94364188434540    3.89503060371136
Cl        8.79327583844407    3.51177091665820    5.57627022142860
P         9.77617347394147    3.07142126562516    2.47433658431061
P        10.14664787316847    0.79283040510955    4.65055735650229
P         6.26713084198373    3.47806904463508    3.59707587019256
P         6.58998590781527    1.02937323350318    5.57330550748580
C        11.41607367558223    2.21167710337831    2.66067109569423
H        11.36347722144642    1.31074370312240    2.04154886384680
H        12.23620611624495    2.83420197097184    2.29464030047603
C        11.61316542782946    1.80801244503127    4.11532791864038
H        11.65117056784169    2.69537469874429    4.75830734328675
H        12.54008120238125    1.24063532879194    4.24037182531681
C         9.62945785323087    3.08129969330305    0.63729354402960
H         8.78166282379357    3.72922204967115    0.39878211058893
H        10.53150760098092    3.52239171306990    0.20295194233118
C         9.39097733922454    1.68085957536577    0.08604109858603
H        10.32247431589837    1.12625684148759    0.00111050174453
H         8.93886381298143    1.72832461970649   -0.90183264386571
H         8.72096595563625    1.13102184870904    0.75125355281303
C        10.18840460199641    4.84555736783087    2.82570565987829
H         9.35591980199268    5.41513740798278    2.39857416521460
H        10.14279297635846    4.97280246879101    3.91118644740948
C        11.50918098640955    5.39521811493396    2.29954267537410
H        12.35542370210097    4.97618146893940    2.83766168839363
H        11.53003236571423    6.47392143197107    2.44346518982342
H        11.63493151008199    5.19759825918251    1.23747422315392
C        10.53004737990051    0.54678931877571    6.44294903219081
H        10.37478319160801    1.51919943199732    6.92288914689200
H         9.76405394159144   -0.13885908741074    6.82161882973912
C        11.91759719521715    0.01475795945454    6.78363786005544
H        12.11822905543909   -0.92349612432720    6.27250673534510
H        11.98493610750654   -0.16460012355465    7.85544767336201
H        12.69072367484852    0.73055149459358    6.51717307231778
C        10.53976728111712   -0.82889242295237    3.87602096966195
H        10.25368805425857   -0.73909215189248    2.82348963875577
H        11.61677644389641   -1.01902662901118    3.93443142445254
C         9.73952376911752   -1.96176027833234    4.50290175702983
H        10.05967894849228   -2.16552239189479    5.52289394473955
H         9.84841954304621   -2.86981328842399    3.91415278758178
H         8.68495183214845   -1.69722423982045    4.49933913364075
C         5.09263863026065    3.28650014109903    5.01933039915387
H         5.52501792388262    3.82595888295850    5.87151996534307
H         4.12751811838615    3.73955576902001    4.77160152347921
C         4.92313060473166    1.80800143073215    5.35326956568945
H         4.42413922375297    1.28848096730123    4.53310398101696
H         4.32114150300203    1.68234666676547    6.25753945979092
C         5.12061771267988    3.22280049721245    2.18463925915024
H         4.63943390632803    2.25785297727057    2.35033238494876
H         4.35114799944529    4.00080953223896    2.19398087840749
C         5.86815620949720    3.19539010567757    0.86116628615200
H         6.32393198199754    4.16178877393241    0.64717945258912
H         5.19315284515800    2.94832799448986    0.04455039287386
H         6.64487146876679    2.43377242795538    0.91579353223264
C         6.55760426881377    5.30910872709433    3.58739673780017
H         7.30703128037994    5.50463500854632    4.36080288032526
H         7.01760483082297    5.53411499790535    2.61876918711111
C         5.34585387195598    6.20749738285063    3.80429501749806
H         4.56797459316374    6.01419473071360    3.06930657718167
H         5.64502002759010    7.24994028464592    3.70791635546637
H         4.92754992924768    6.07036928363104    4.79763568868488
C         6.95439585634255    1.50690008145891    7.33398935680624
H         7.99636953544256    1.23068923047877    7.51875930759818
H         6.90943605901683    2.59945563696609    7.37576294288629
C         6.07856246184604    0.91552125706970    8.43048872289403
H         5.03060992743824    1.16913680183725    8.28984351153811
H         6.38924955220763    1.31487864292448    9.39525187572359
H         6.17419240330546   -0.16643666142705    8.47036338483060
C         6.27438134632536   -0.78375768272197    5.67109386336399
H         6.54270481262501   -1.17580755153448    4.68814922101221
H         6.98696608877489   -1.18461081457763    6.40202787049255
C         4.85252392576421   -1.22390364854227    6.00521594052864
H         4.50638601137630   -0.82660480233134    6.95569819333511
H         4.82369449105348   -2.31095929419158    6.06246596691416
H         4.16161097221550   -0.91471658753929    5.22670687370607
N         7.60543036018431    0.76292468838652    2.69358862942252
B         6.75557894624532   -0.26867243447551    2.07839219210152
H         6.58868623260421   -0.20889075122186    0.88565400497446
O         7.26711167708854   -1.62716109285075    2.49058190430136
C         7.77730279346277   -2.45975249728140    1.64753016935291
H         7.66040877425300   -2.16221927751269    0.57504852945750
O         8.34914890253387   -3.47733081024472    1.94405027086742
O         5.45736314719676   -0.03489751174638    2.83939703742534
C         4.30629244015389   -0.45617663640691    2.44170898081557
H         4.31031459565616   -1.05055020875679    1.50095512510320
O         3.27320619702889   -0.21856098586009    3.02304094752129

