57
CSD_code = BIFTOA | q = 0 | S = 0 | Stoichiometry = C14H34Cl3NS2Si2Zr | MND = 6
Zr        2.71325609587992    2.14645188747243   13.20073455560531
Cl        2.44580395698519   -0.06237139557642   13.92042019328355
Cl        2.02427389680846    2.95659090448399   15.29180427719498
Cl        0.52487891431706    2.11279462072471   12.37832465943826
S         3.12813119136012    4.73891061068684   12.41984001709127
S         5.31429173761896    2.24020260586207   14.04264000714810
Si        3.17948446468959    2.76065114722247   10.10244579281628
Si        4.90917161738735    0.63555349706805   11.48320772765354
N         3.81582920414901    1.95738131308365   11.47752036538509
C         2.34010980672390    4.35108991188622   10.83168669204121
C         5.57661300880510    0.60038226830757   13.30824041665537
C         1.87226914427978    1.74837609723502    9.14452769403643
C         4.50126764891184    3.40655537077810    8.88665497416798
C         4.09179134114560   -1.03849612211978   11.05380797793567
C         6.45449967232054    0.86984236019990   10.38887964277286
C         2.00380082006369    6.04404356823753   13.17902452726240
C         2.64203340357686    6.33645775733682   14.53198815793229
C         0.59590442880044    5.49558909873171   13.34302581270409
C         2.02481095799952    7.27856646255647   12.28772806328698
C         5.61589051489275    1.98281558618032   15.88211828388930
C         7.07200286580479    1.58440828231821   16.08061479708914
C         4.66651178292494    0.93216575484741   16.43348425277347
C         5.33308554648182    3.35193171150952   16.48998622524100
H         1.28194302791127    4.17314879059025   11.00618950179755
H         2.46340301446838    5.21106031434049   10.17628772149015
H         6.64209232807168    0.38211533385319   13.34870197651660
H         5.03088747884150   -0.13283026901139   13.89689555423014
H         1.13833113685234    1.31213635967030    9.81675956707064
H         1.34015664139294    2.35665076238857    8.42052953638352
H         2.35031793932388    0.93807074965712    8.60427596314106
H         4.95491904655587    2.58602832858329    8.34532254042197
H         4.06301233130520    4.07717619199717    8.15553487951577
H         5.29239044600939    3.94188375921456    9.40016105803106
H         3.11508860671525   -1.13488252143885   11.52083420145182
H         3.95535458943943   -1.12169000998574    9.98084165720388
H         4.69647222898724   -1.88057258114222   11.37358682171727
H         7.19562502109684    0.10484697190563   10.59339705738480
H         6.19125658679666    0.79591860758671    9.34115634853118
H         6.91844380553512    1.83689775569403   10.54661561197811
H         2.61947420325842    5.44667252552081   15.15858274057044
H         3.67592617744847    6.65020833599217   14.40388548228389
H         2.09675311472636    7.13052169328976   15.03705499669408
H        -0.00229963400956    6.20379471857815   13.91414062635482
H         0.10745639928641    5.34524153481782   12.38214690908201
H         0.60681106898732    4.54719867604604   13.88249853315777
H         3.04598503671588    7.61686720736855   12.13071518027844
H         1.57206858576767    7.07209211028754   11.32125478330369
H         1.46193975933623    8.08091548067958   12.76052526291381
H         7.27546249495849    0.61231448312115   15.63853974834465
H         7.73276593825906    2.31968943937220   15.62819288318966
H         7.29364835162357    1.52597368950399   17.14434037226717
H         3.63186546488368    1.17239878266901   16.18433117192673
H         4.89681038621478   -0.06005459830526   16.05051954743453
H         4.75558281225821    0.90014696640575   17.51810299987840
H         5.53457828376221    3.33405338435697   17.55858342243264
H         5.96299915402430    4.10971023513824   16.02872612002615
H         4.28936615126847    3.62200349223382   16.33746410961602

