33
CSD_code = BIFXAP | q = 0 | S = 0 | Stoichiometry = C14H12Cl2N4Zn | MND = 4
Zn        2.66272859975386    8.25201807790698    4.14710717557597
Cl        3.13723957651319    6.40539262379705    5.43814093500039
Cl        3.21290375464073    8.67363730523716    2.09045369020139
C        -1.39779757103026    9.59882662156409    3.52738643736445
C        -0.03526089634003    9.32781035928256    3.47290138684281
N         0.58149747040001    8.48057963873636    4.29402066598021
C        -0.18863705427080    7.87155432006967    5.19638639324290
C        -1.59366712717307    8.08466586756097    5.33722274219941
C        -2.20301860953099    8.98156234505206    4.46894047237852
C        -2.01048990794074    7.24460348758873    6.40508650903601
C        -0.89971589535295    6.58706089757295    6.84139546558921
N         0.19810159702060    6.97042358615376    6.12201374333334
C         3.70312444768650   12.24493277995299    5.43517930458634
C         3.35870565246499   11.08926278670282    4.74327689316279
N         3.29046868223722    9.88503400072009    5.30683340497107
C         3.58696884217213    9.82675389322002    6.60568307869934
C         3.94650376426223   10.95408718786712    7.40520383811237
C         3.99987660941096   12.19656101890404    6.78630627520498
C         4.17749735473426   10.44725094318800    8.71269832014159
C         3.96466206331708    9.10269827531562    8.65379023102144
N         3.60001995044219    8.72976956023130    7.38980248655754
H        -1.81709893949616   10.29787230174907    2.82170650981105
H         0.59379220660356    9.79958602949569    2.73281865933222
H        -3.26206740690138    9.18396035858137    4.52347846112502
H        -3.00764226344479    7.14800087584343    6.78381028934236
H        -0.80550337720828    5.86200059925034    7.62621471971149
H         1.14529847442108    6.59367977896512    6.18453695775962
H         3.73654255882248   13.18035243671600    4.90008489801138
H         3.13704095373199   11.12187574671113    3.68696201696160
H         4.26734101256077   13.08632728776865    7.33612584566731
H         4.46827952602941   11.01723977794554    9.57154711455591
H         4.04529558735667    8.36874678506340    9.43181342614711
H         3.44581036410746    7.78237244528605    7.04097165237272

