47
CSD_code = BIFZIZ | q = 0 | S = 0 | Stoichiometry = C14H22N8S2Zn | MND = 4
Zn       -1.12117628996701    1.31390278296250    4.91887115658306
N        -0.56996862379751    1.72714345762704    6.64205568498833
C        -0.76126241547695    1.47943678942952    7.77802282228343
S        -1.04876745969515    1.15052323326669    9.29239791083386
N         0.11810845518926   -0.01390287849489    4.04103241324616
N         0.44470627612252   -1.20857606908729    4.54952484935845
C         1.07465921551131   -1.85686203089428    3.61966166946504
N         1.17838715366537   -1.10496705201679    2.48969649970306
C         0.55775851241233    0.04468221954473    2.80879531170096
C         1.78845029279956   -1.49539638992524    1.21981700504113
C         3.20768849666012   -1.99530649328713    1.50188771422908
C         0.92855065455793   -2.60531425871472    0.60933987966582
C         1.83756148727892   -0.29058547248365    0.28300590721913
H         1.46034589278773   -2.84823311581947    3.73117695345354
H         0.43133583420262    0.88785855260701    2.16191587412798
H         3.19860755509242   -2.89248320679769    2.11533387078750
H         3.70516216226141   -2.23008580011762    0.56515048473223
H         3.78492841020445   -1.22926827492447    2.01510297660088
H         1.34925709498215   -2.91520261366480   -0.34302355550815
H        -0.08460008003058   -2.24757503772656    0.43970685634966
H         0.88436475156105   -3.47132463855716    1.26572246258293
H         2.32227745647268   -0.57882824339286   -0.64588860105024
H         2.40752286632832    0.52342362794320    0.72476190380349
H         0.83960182069216    0.06807278879832    0.04389754208245
N        -1.44032603374105    2.45939167100620    3.50479393832162
N        -2.71419366127235    0.18303202496452    5.45717259560916
C        -1.25729482718099    2.67655498053420    2.35989467532073
N        -2.60659411743576   -1.11812899053216    5.14826263293735
C        -3.33142910188401    0.27828260632511    6.60949735108645
S        -0.98620834507193    2.92941236555594    0.82862554408286
C        -3.15378845852625   -1.78480339939651    6.11699966959373
N        -3.63392671382956   -0.94604841709102    7.07356887766915
H        -3.55633160867438    1.20433284440076    7.09496953679926
H        -3.21546353608125   -2.85189950532767    6.15457862718086
C        -4.24670904517176   -1.32865365882960    8.34515813480702
C        -5.44160332603769   -2.23799415986258    8.04748662368277
C        -3.18378699604193   -2.05965700570370    9.16828981680749
C        -4.70682798835329   -0.07848180837420    9.08954151517817
H        -5.12814852574247   -3.15841642594868    7.56174903744712
H        -5.94193504942246   -2.49774768456832    8.97608228962421
H        -6.15555905579926   -1.73033529581024    7.40215688333534
H        -3.59640687107419   -2.34496396009708   10.13167282940740
H        -2.33141394158641   -1.40527083599218    9.33931747566936
H        -2.83824848649949   -2.95628713689944    8.65935147036499
H        -5.18683986539250   -0.37300993995670   10.01875701157978
H        -5.42434265238231    0.48849454886648    8.50041833616080
H        -3.85832131259069    0.55506530650968    9.33708953489180

