107
CSD_code = BIGCIF | q = 0 | S = 0 | Stoichiometry = C48H52N2O4Ti | MND = 6
C         5.97051392437437    2.42319613950141   14.14908998319926
C         7.33854066898957    2.05006597827392   13.94455293227951
C         8.35671197291101    2.36126639867319   15.03477007715903
C         8.39277840585360    3.88430072516202   15.23069363705215
H         7.40622117488506    4.25126619292446   15.52213642080699
H         8.69519532541546    4.37332556701649   14.30530140879616
H         9.11221830881588    4.14141054540814   16.00690494655726
C         9.76952935500752    1.88639169175299   14.67631333613689
H        10.44840423256542    2.13583542180928   15.48956785541500
H        10.13546947447343    2.37532487518586   13.77640229841557
H         9.79722177065612    0.80831681127469   14.53449844212266
C         7.94535454229180    1.68478406454587   16.35051192127752
H         7.02058634670075    2.12134344396693   16.72279901883617
H         8.72453810618966    1.82337319713199   17.09849282886651
H         7.79816749810683    0.61703890510234   16.19644488813550
C         7.69430959781584    1.47109198174040   12.74713563215797
H         8.71932209879252    1.18850363990826   12.56860164564635
C         6.77260423582316    1.21829866442656   11.72756087463133
H         7.10366056266678    0.74953231668849   10.81344257377387
C         5.46116397251906    1.57067193292071   11.89814644684479
H         4.73351021253652    1.39257207519444   11.11846638791798
C         5.04575446443924    2.19222972698376   13.08412826404037
C         3.66476073103623    2.49037416562614   13.27989924797994
H         2.96514678033518    1.94164216747261   12.63147238655669
C         1.82548544205776    3.26884855710189   14.41577850089264
C         0.97740759264977    4.33274892079716   14.05517671222635
H         1.40180304997663    5.17292750653567   13.52474045571353
C        -0.35057415945347    4.28813113774795   14.36699807257535
H        -1.00361518241432    5.10308444905516   14.08965424931576
C        -0.89842433973563    3.18647205531611   15.05793323860395
C        -2.26365222004159    3.13112286194565   15.40521829265880
H        -2.90183809338623    3.95616147306379   15.12196802982400
C        -2.77223608660798    2.06147871781831   16.08719882938509
H        -3.81965944992765    2.02731489683977   16.34863539989023
C        -1.93308065530284    0.99982095869479   16.45849593244936
H        -2.34544403930638    0.16431680145703   17.00521722981676
C        -0.60558693442414    1.01948110270587   16.13505667695399
H         0.03941889895716    0.20217757561971   16.42306650903980
C        -0.05214749063219    2.10368229673525   15.41906348232898
C         1.31644955244306    2.14959290282854   15.06188994782940
C         2.27697358407160    1.09242092987887   15.46522409880553
C         2.28638807978389   -0.19853765315801   14.88622416284319
C         1.35071989205940   -0.58716414753238   13.90237045107851
H         0.59915681954976    0.12341771549194   13.58983563726966
C         1.39095815101861   -1.83840881932898   13.35499241106751
H         0.66939308534525   -2.12526311687415   12.60393609042145
C         2.36741312964756   -2.76143599719135   13.76007160037210
H         2.38239241729258   -3.74697090953757   13.31843285103191
C         3.29297418720248   -2.41151595439516   14.70261665172072
H         4.05168344757879   -3.11487441252542   15.01529717821620
C         3.28340143208584   -1.12831993373127   15.28678165558821
C         4.24012784522416   -0.74233482979303   16.24959777076734
H         4.99188422411708   -1.45876837362317   16.54837241024986
C         4.22431089829385    0.50897693545655   16.79503226749293
H         4.95983981097565    0.81807603429989   17.52452563992114
C         3.24770259688916    1.44041287270323   16.39341231516697
C         2.67263655104963    3.07040725017038   17.96415110730575
H         2.26480101423943    2.27896533048856   18.61112062057239
C         2.43354547708812    4.41207706707243   18.38956520918519
C         1.99730885940874    4.64747678528992   19.70169932299523
H         1.92736382696239    3.81385094849084   20.38726142260079
C         1.68524136587658    5.91585056947477   20.11000369811843
H         1.36703987836836    6.10774219352230   21.12339943516899
C         1.76877695140173    6.97274852907868   19.20026404830811
H         1.50603752940898    7.95499154320749   19.55861635967613
C         2.16495029235906    6.80076411048016   17.89232744664414
C         2.23774160100853    7.96624445260658   16.91146954157022
C         1.80815312462104    9.29835055670644   17.53715848002945
H         0.77880562788448    9.25712939429009   17.88610625963135
H         1.87538722065525   10.08279720540377   16.78564992587602
H         2.45651051116569    9.57427832144218   18.36567112587680
C         3.68002502493640    8.12244518955388   16.40716454271334
H         3.73140424625831    8.93661351556102   15.68497853496093
H         4.02417702500769    7.20214313660150   15.93147620832939
H         4.34291583369319    8.35891195918932   17.23814707408621
C         1.30486036792162    7.67399670989329   15.72839378998131
H         0.28192898744720    7.54252594787854   16.07710570934632
H         1.62207078805098    6.76492439845173   15.22672567504954
H         1.32694141838904    8.49925576683241   15.01856218788625
C         2.54068380529436    5.48866410028826   17.45197552652150
C         4.34627819687688    6.19168330396900   12.56580283746362
H         3.69531460342261    5.32865885549345   12.43895729721816
H         4.70025649376461    6.51805227617070   11.59056946029206
H         3.78068596069232    6.99642462540315   13.03332625599267
C         5.52933647171170    5.81340201056409   13.47217952159296
H         6.07539663108918    4.96637985349381   13.00225098810336
C         6.49775876159613    7.00283305210322   13.59491578916113
H         5.98063222046025    7.85043177917144   14.04058358062479
H         6.87286562794160    7.28763033724083   12.61504093322315
H         7.33748404841223    6.73136015532741   14.23072084706936
C         6.79459095530106    6.33896686836050   17.55535271921109
H         7.72215987181590    5.78185676176001   17.44334557946705
H         6.98289873748048    7.22453470908933   18.15832855769276
H         6.43495109557796    6.63443688499121   16.56985325053103
C         5.72498049127628    5.45281027555978   18.21203820380052
H         4.88172962093823    6.10355308105183   18.53044222982610
C         6.28667349476183    4.75585557103231   19.46143426196130
H         5.50161037317839    4.17081183683843   19.93646411084528
H         6.66491939731710    5.48752282905966   20.17081675602695
H         7.09260879586342    4.08548548820848   19.16839143335783
N         3.19842178075224    3.31152958006725   14.15142241452926
N         3.25362306061301    2.75357590914904   16.86784228241252
O         5.55460054504671    2.88491227157597   15.27786875959374
O         2.91667502179177    5.26088367543566   16.23777684925776
O         5.07470987087518    5.42615259523584   14.71630626931528
O         5.24768992878119    4.50712836649398   17.32625364660045
Ti        4.43793136497067    4.26094288209871   15.81147370627682

