39
CSD_code = BIGCUQ | q = -1 | S = 0 | Stoichiometry = C18H12Cl2CoN4O2(1-) | MND = 6
Co        8.73772553144962    7.40868562949653    9.79641765838319
Cl        7.35683693685964    8.71324888610767   10.94127271210536
Cl       10.19472471417010    6.02187832503048    8.86237646414754
O        10.87010284396635   10.30647348704697    8.13678350054867
O         5.46080917693860    5.76732142317854    8.29118846774277
N        10.17007128735035    8.16536629300853   10.88069940365700
N         9.22049678233075    8.74516463558011    8.60636329297793
N         7.39070908576693    7.02000093385101    8.58365074490508
N         8.03087676564335    5.85389315463098   10.73878513434683
C        10.51679214176312    7.96425292828724   12.14696770018347
H         9.90342557541149    7.28388259414607   12.71922293905799
C        11.58381307090557    8.60172447469874   12.75457915281257
H        11.81736543752485    8.38745229855010   13.78652728509631
C        12.33444628428978    9.51011797562422   12.02126485928645
H        13.18447570147545   10.01148993039816   12.46176031935064
C        11.94212809338031    9.77252456982285   10.72514145959859
H        12.43771561930925   10.49453069044106   10.09462026279897
C        10.85166603838277    9.09524371267525   10.19141339324570
C        10.32716264323496    9.45068202347888    8.83521038750875
C         8.41960999338644    8.80735459097856    7.48123330423877
C         8.54592045989139    9.70113209649834    6.42513793899579
H         9.34192650746957   10.42781149164902    6.43901930362629
C         7.64544233724653    9.63567633224964    5.37480628265086
H         7.74089712944673   10.32997465971960    4.55057130935352
C         6.62711813789482    8.69525603276923    5.37000522651792
H         5.93081009797300    8.66005937355171    4.54274584416868
C         6.48770941131831    7.79487709304401    6.41322311374132
H         5.69909657029097    7.06011208227988    6.42037418265786
C         7.38284260733963    7.84520220588994    7.47445986420445
C         6.47629491089347    6.10415764589665    8.89968842490002
C         6.89370692553621    5.42517132026531   10.16677515030206
C         6.16719555035074    4.34797999906570   10.66133105919438
H         5.25774415255187    4.08136536447943   10.14531412114057
C         6.63399387903897    3.66575210338927   11.76557621442876
H         6.08673121083412    2.83180034503627   12.18158387264562
C         7.84663707232737    4.06543281762551   12.30979923559449
H         8.28252767277659    3.54317871617481   13.14805217284188
C         8.50448638427372    5.15257529364060   11.76249165666464
H         9.46666525900516    5.44859646974366   12.15396658437688

