68
CSD_code = BIGHOO | q = 1 | S = 0 | Stoichiometry = C26H30CoN7O3P(1+) | MND = 6
Co        9.70949570283990    1.10394660008729    2.49757065663865
N        10.06728857983216    2.97696980379658    3.23993448851357
C        11.07911847323772    2.92953323795102    4.14773773494720
C        11.37210523464461    3.99375134107093    5.01113215528558
C        10.62680976137738    5.14699761934163    4.93698426039186
C         9.63709566284381    5.22643866063293    3.96752136561422
C         9.39472000647592    4.14109074351700    3.13145605455188
C         8.38656300821857    4.23333534079601    2.07599162628643
C         7.94121113047929    5.59976775768058    1.62650042049691
N         8.06281190049528    3.08622089975723    1.61748052307835
N         7.17315724787034    2.79222600826398    0.66920339551192
C         6.01397177441520    3.59719218923701    0.32769198986137
C         7.33124433041837    1.52926341852619    0.15874815954034
C         6.50117647633446    1.04506769826665   -0.88091020866706
C         6.68758626426391   -0.21882866969082   -1.36988130351673
C         7.70061461328149   -1.02492625436968   -0.81932638660168
C         8.48855070951420   -0.43745661078693    0.18891676414818
N         8.33085893176257    0.81116402905328    0.66213512346259
C         9.50879390380998   -1.20198288039443    0.80119544376340
C         9.74304626605906   -2.53858998873047    0.42957922377652
C         8.95418263941008   -3.09182936476430   -0.61547939142586
C         7.97523833087306   -2.36227598634327   -1.21417859251787
C        10.73649250454715   -3.23176869860564    1.14628327044392
C        11.39442644575128   -2.60264952441560    2.17489814514535
C        11.07252834893615   -1.27041563949829    2.47936832222239
N        10.16563509656415   -0.58302878711536    1.79009833668083
N        11.65934517734395   -0.53566280971001    3.47800928079729
C        12.10712950275057   -1.20377404977479    4.68541837335357
N        11.22797338497008    0.75959424308480    3.46455328527864
C        11.79481412371441    1.69128332403902    4.19368728890498
C        13.10328877773702    1.58094559445872    4.91715056186642
P         8.05246373267755    0.26601170797086    3.83809092955457
O         7.63512329925941   -1.14250005499091    3.19271375132834
C         6.80705021964473   -2.07817975508416    3.88174052166719
O         6.63832066069305    0.85536675989882    4.42607603631018
C         5.76128775690925    1.59535259699984    3.60289395176284
O         8.60257746211123   -0.27417636917077    5.26042268225276
C         8.89989212121987    0.62733165447409    6.31262486888372
H        12.15900232466242    3.89488718408530    5.73977730890464
H        10.81245821362363    5.97422967341375    5.60331392557911
H         9.05173114951434    6.12530387861858    3.87625152927746
H         8.77983211709619    6.28822169501682    1.69750337342817
H         7.13114082952463    5.99013371845023    2.24329975044737
H         7.62156943538969    5.58300617503281    0.58923027201659
H         5.84902152430074    4.33744072480575    1.10465956294642
H         5.12896507602663    2.96110741733734    0.28898146961280
H         6.13463111302757    4.09813529320178   -0.63535130959785
H         5.73984327911468    1.67440431737266   -1.30865447087387
H         6.06850342839110   -0.59760999582604   -2.16901059167642
H         9.14293178919294   -4.11100786033982   -0.91637879963227
H         7.37505434370949   -2.79303541173153   -2.00155853552855
H        10.96911906111831   -4.25392276797401    0.89068608165966
H        12.16113687383228   -3.11393414148681    2.73335903072293
H        11.88874653374006   -0.58191527499403    5.54947077827457
H        13.17519225655897   -1.42645078419172    4.65529056623594
H        11.55681668296045   -2.13841539258228    4.80042025972037
H        13.65099743611792    2.51240544181057    4.78743615479372
H        13.70843064557956    0.78416580412154    4.49668574305395
H        12.98493520541494    1.41234934368997    5.98770063192281
H         6.31595357742934   -2.68153477703749    3.11908258204458
H         6.06163107120405   -1.56661894638179    4.49099438925540
H         7.41649845257746   -2.71520758326901    4.52213492590096
H         5.52490742624656    1.04909410059845    2.68690146826357
H         6.20307588598991    2.55896485747631    3.34607956526934
H         4.84991073109817    1.75109026532630    4.18058667424420
H         9.31685563450618    0.03000537746620    7.12331548683480
H         7.99428560522900    1.12618501548038    6.65791736886420
H         9.62203273354635    1.38231686706538    5.99434169845573

