90
CSD_code = BIGNEL | q = 0 | S = 0 | Stoichiometry = C27H52F3NiO4PSSi | MND = 4
Ni       -0.10753409619960    3.36037647139535    3.08727168787457
S        -2.24270554420875    4.06569915815596    3.82927889850824
P         1.33365452996911    4.77110128347389    2.21691874480591
Si       -1.64162739020592    0.37569209898725    2.44842648944871
F        -3.12709325375797    6.63580060484379    3.81335903489841
F        -3.99335442370093    5.41661885248333    5.36701249449264
F        -4.62113672943368    5.16492046290988    3.31412356322942
O        -0.65489229129687    1.44771478084398    3.27384305293142
O        -1.89603249063991    4.28408958447473    2.43119986020836
O        -1.18572924422784    4.44985457878578    4.74546878160231
O        -2.96488532833610    2.86771988679231    4.12814242942077
C         0.68008296186914    1.70051281481492    3.29934539682512
C         1.35729381572318    1.37146756677336    4.63451003179022
C         0.49070951761440    1.88218861321895    5.78802039596010
C         1.50903141350551   -0.15297890726650    4.72748058565407
C         2.73587858145206    2.02826177359486    4.69942868453406
C        -2.61389047945198    1.29986532412252    1.09973635115526
C        -2.71701248753954   -0.36036828152873    3.82915121120808
C        -0.48928204144272   -0.91677154168630    1.62814381757739
C        -3.55977223069470    5.39579476978173    4.10009588280637
C         3.15278595320395    4.39468769037560    1.91825074682835
C         3.31439538466132    3.26843545494077    0.89886600650924
C         4.75562179164575    2.76484337689990    0.88369359300835
C         5.69999525801596    3.90938911818554    0.53092887889716
C         5.52865321779361    5.05792363102057    1.51895416748290
C         4.08074111135855    5.55229215403392    1.54948825307270
C         0.51748392075886    5.15845339005079    0.58555746151904
C         1.21820308262325    6.09761969084138   -0.39002155091870
C         0.25208013041461    6.43830942103685   -1.52575512085463
C        -0.21751080749720    5.16984365488703   -2.23405551009288
C        -0.87366501577213    4.20479274049610   -1.24816723592028
C         0.09550229587974    3.86641824964153   -0.11939969304895
C         1.41203959448493    6.40818909161556    3.10259943498512
C         1.88481936055833    6.10424192890537    4.52755940064834
C         1.90393777523882    7.35873977151179    5.39488985361074
C         0.51505594833438    7.98449288743153    5.43344585260456
C         0.07111524434521    8.33517438690814    4.01892234862007
C         0.04412180572016    7.08546237327137    3.14284408948248
H         1.22393113532165    1.27821893700001    2.43939450042897
H        -0.46240940122626    1.35953862996188    5.81241357118378
H         0.28877680516815    2.94773711352263    5.65439195259917
H         0.99831467314161    1.73533989018148    6.73851514697658
H         0.53523243349357   -0.63190899213886    4.66871320347125
H         2.13695182528209   -0.52940379739267    3.92244285324714
H         1.96895808644808   -0.41880944032471    5.67648112589419
H         3.34421704445677    1.72976085813629    3.84922412277817
H         3.24689201265616    1.73591519813816    5.61333411915718
H         2.61333698235410    3.10881729974039    4.69240266683436
H        -2.76052546108225    2.33265817385783    1.40538164174897
H        -3.59656995108823    0.86147110690606    0.95906050059356
H        -2.11244937151293    1.29962215130471    0.13437251298728
H        -2.15087202489047   -0.93697851065370    4.55646835680891
H        -3.48619954271747   -1.00831360026387    3.42253371419612
H        -3.20423537307696    0.45829374519507    4.35169330784646
H        -1.08252417271010   -1.64560771631038    1.08721445139314
H         0.10789178279110   -1.46098108668232    2.35260849747285
H         0.19187774381560   -0.46106080889641    0.91435337220973
H         3.49346857263593    4.00554337081990    2.88355141205540
H         2.62782100787698    2.45627975095949    1.14490433288211
H         3.07019427939613    3.63741831429030   -0.09714359639926
H         4.86075377602892    1.95650667643983    0.15726518962677
H         5.01639378095143    2.36846556784469    1.86714648771109
H         5.47980722876470    4.26272711799220   -0.47879043701663
H         6.73398167739048    3.56005344365519    0.54374960622880
H         5.81310777756957    4.71787913234546    2.51719473331737
H         6.18973687096090    5.88306848067444    1.24635029186655
H         3.82016643151129    5.95795119121957    0.57313639330788
H         4.01147933746742    6.35436084241228    2.28298917343153
H        -0.41727851055490    5.63021637102760    0.91311021069439
H         2.10049348333053    5.61495304555205   -0.81347208976060
H         1.53409912872529    7.01320811206485    0.11351086464689
H        -0.61304014785620    6.96443493545369   -1.11739967661648
H         0.74078584642885    7.10307469748303   -2.24186214963282
H        -0.92307168197139    5.43032337357433   -3.02536490604761
H         0.64034226110592    4.67983370264770   -2.70193490726039
H        -1.76844567030129    4.66261043178194   -0.82374556315385
H        -1.17696837669987    3.29517802685409   -1.77102005170739
H        -0.39074458001251    3.21081491010479    0.61884076705937
H         0.95889860533477    3.34324225321368   -0.53205070994359
H         2.12165930161418    7.07381200650761    2.59928325687081
H         1.18645607402345    5.37871494132412    4.95827373361502
H         2.88249458664498    5.65752153902062    4.50687864953494
H         2.22929397761943    7.10092641258230    6.40463216222798
H         2.61873440834239    8.07895609733895    4.98622656370351
H         0.52001156159391    8.87850022710402    6.06051728482770
H        -0.18945681403940    7.26895416956311    5.86044293601824
H         0.75979988673849    9.07014824375969    3.59130316642119
H        -0.92594921663761    8.77748992778783    4.03883020256437
H        -0.68092118974982    6.38135637403197    3.54954031092736
H        -0.27457774184983    7.36699825427348    2.13814836879439

