73
CSD_code = BIGQIU | q = 0 | S = 0 | Stoichiometry = C19H48AuPSSi3 | MND = 2
Au        8.08228272582079    2.50876302097172    4.05102606195960
S         6.58205051844657    4.24975959334741    4.30717780825166
P         9.62857974778120    0.85396417315595    3.86352900775465
Si        4.65620696167512    3.60817461764393    2.06153704596142
Si        3.80742428341253    5.05532415619414    4.80199052705037
Si        4.55984380170308    1.93702788058900    4.84580419458011
C         4.83136898227930    3.62914579858208    3.97641310015260
C        10.41208293516273    0.63719326304300    2.21391456082936
H        10.96504029617427    1.55918571527177    2.00709176920402
H        11.12703097973704   -0.19252692854586    2.25071613699302
C         9.36899701822824    0.42076678902681    1.11964527421550
H         8.86618546748797   -0.53730099085169    1.26959989033884
H         8.61345904502649    1.20778206840869    1.18850080245196
C        10.00281556317731    0.44402244714876   -0.26543482414855
H         9.24697019867283    0.28277257880429   -1.02959612341691
H        10.47795137052500    1.40453717464492   -0.45173655835428
H        10.75612212173373   -0.33615245220917   -0.35668669342459
C        11.08018753221591    1.06819887164864    4.96942093630001
H        10.71132227139397    0.95935549819077    5.99419085785168
H        11.81409504398596    0.27712706438299    4.78024438528275
C        11.70312803671741    2.45315007653982    4.80725979009498
H        12.16251149069265    2.54148258411782    3.82036947933591
H        10.91130883707832    3.20607005773969    4.87354319952659
C        12.75460751609120    2.71921218695991    5.87696341238879
H        13.19082852944914    3.70544147334887    5.74194941577081
H        12.30990775830886    2.67495115048939    6.86852822921108
H        13.55186403678144    1.98035792967404    5.82356396267849
C         9.05670901768866   -0.84541381247483    4.26728370480463
H         8.31081292718369   -1.11177612052956    3.51152998470275
H         9.89290743241517   -1.54881215567370    4.18772281588543
C         8.41023721722631   -0.90136945246136    5.64977108230362
H         9.17158362822729   -0.77368189147638    6.42229059639597
H         7.69952786995201   -0.07497333242160    5.74048874162723
C         7.68626044458070   -2.22325280198251    5.87158206352097
H         7.23953872907924   -2.24932754743111    6.86225253095215
H         6.89561210405990   -2.35251386408946    5.13589215863100
H         8.37714938476039   -3.05962252387692    5.78434103740405
C         6.08975116481506    2.70065479625028    1.17268211785976
H         6.14086819720967    1.64976953243308    1.43468740907737
H         5.96890858112174    2.76486237477998    0.09503434545347
H         7.04137569212797    3.15941803246800    1.42461856301325
C         4.66366649741573    5.36211168243333    1.31523380168974
H         3.73361292991743    5.88405053933517    1.51078538564425
H         5.47183025652152    5.95346923332602    1.73026477165538
H         4.79937192369684    5.32324079124272    0.23797230192562
C         3.04791247118018    2.73319370868572    1.51992088650517
H         2.17813494420560    3.16501106698383    1.99961211898112
H         2.91321705131322    2.83145055088305    0.44766365101166
H         3.06030107304039    1.67386795707409    1.75121937288616
C         4.46768211981295    6.80397716786978    4.40935950131938
H         4.04314736096494    7.21134585891442    3.49866544815797
H         4.23110367693346    7.49051171386944    5.21714842364782
H         5.54557527634442    6.78501553139391    4.29938187115252
C         1.97568163099187    5.02787998617297    4.26054264982584
H         1.86436800484998    5.28042685325962    3.21201799348349
H         1.50814048826418    4.06441996488052    4.42118316259450
H         1.41737872900634    5.76143841500223    4.83243789749667
C         3.86122032234794    4.89458510640682    6.70391790263012
H         3.29612774239304    4.04088869879672    7.06128142302399
H         4.88342820365890    4.79081667029562    7.04921257229127
H         3.44364238363828    5.78158087613485    7.17065515704188
C         2.71473893268492    1.53835029923236    5.11332270441397
H         2.15880362275015    1.58517742683048    4.18442287314488
H         2.60232372184011    0.53503455343261    5.51221173029849
H         2.25094060344290    2.22309578033747    5.81336502986808
C         5.43355598807430    1.81827947093436    6.54547410666380
H         4.79854710055004    2.18290266475511    7.34461314417863
H         5.70230644699099    0.79276613794580    6.78616208011055
H         6.34182217713753    2.41331516556885    6.55609064497513
C         5.22360897032039    0.45313142193277    3.82501613286582
H         4.66694756083982    0.32895027468044    2.90299562239859
H         6.27301552157821    0.56820023975284    3.56527062964205
H         5.12453080707033   -0.46743284020650    4.39327620800763

