37
CSD_code = BIGXOH | q = 0 | S = 0 | Stoichiometry = C12H20N2O2Zn | MND = 4
Zn        9.78710066088483    0.95589436570822    9.66661451007584
O        11.20408696153721    1.94081116529245    8.96025028127663
N        10.78468704557861   -0.05210767092398   10.99482960118970
C        12.06429831139287    0.14556130215897   11.20143966936557
C        12.82869756638289    1.04741994461395   10.44255133608829
H        13.87498026071628    1.12469341343733   10.69777117588038
C        12.38713490232256    1.87265467770633    9.42186708597750
C        12.78362804561371   -0.61011314899875   12.28806447930435
H        12.70105372516207   -1.68388156262904   12.12336647064057
H        12.34058424201666   -0.38799148855748   13.25813832217856
H        13.83492164076786   -0.34135850885390   12.31588838428460
C        13.40915563377081    2.79215775061018    8.78290800434895
H        12.95549005868128    3.30580956450265    7.94014717949788
H        14.27367865671549    2.22650463003114    8.44375374872696
H        13.74679783601017    3.52946470003938    9.50837088372988
C        10.07678516604138   -0.99307167324350   11.83840747806662
H         9.03383193998851   -1.01611312017765   11.53125290136374
H        10.12112744637427   -0.69859313672920   12.89114598377576
H        10.49118834000579   -2.00214987473672   11.74593444774193
O         8.37002259396659    1.94075447508785   10.37289079397970
N         8.78961380156917   -0.05213950848528    8.33834562605798
C         7.51002735817219    0.14554627581047    8.13160173401241
C         6.74553858964404    1.04736117603895    8.89045463239849
H         5.69930909834391    1.12471866940728    8.63504089847281
C         7.18699466878532    1.87255517425005    9.91121787873487
C         6.79081414568247   -0.61010787919038    7.04488699711178
H         6.87343454761119   -1.68387740569767    7.20954955300780
H         7.23391499104952   -0.38792722367661    6.07485363019364
H         5.73950895313103   -0.34140691620123    7.01699804580887
C         6.16497350771231    2.79217222703266   10.55000939701752
H         6.61819684990605    3.30448326276328   11.39409964055379
H         5.29930477514251    2.22675509893422   10.88732335473277
H         5.82905606449862    3.53083544949188    9.82475721644023
C         9.49759595091917   -0.99311790078609    7.49485422218150
H        10.54051105487849   -1.01618748963935    7.80213991598519
H         9.45339320747102   -0.69861882360937    6.44211658941163
H         9.08316140156098   -2.00218999077584    7.58725793039202

