70
CSD_code = BIGXUL | q = 0 | S = 0 | Stoichiometry = C36H8F21PPtS3 | MND = 4
Pt       12.12665590571570    1.77391172692857    2.57767163417877
P        13.47744097521979    0.71087393739448    4.06770474619583
S        13.19214966579168    0.54902895180267    0.83676218843051
S        11.15907682834661    3.12231518887946    4.25403780931353
S        10.56786030879697    2.59159181510038    1.00102865178368
C        14.60072255905444   -0.18015015353602    1.67124942785167
C        14.67558229805902   -0.26370516782148    3.06057445449430
C        15.71565878771401   -0.99461782436653    3.61775770591167
C        16.69567287846661   -1.59342016658246    2.83243094768847
C        16.63996296448809   -1.45850513540468    1.44690021063308
C        15.57681240265567   -0.76514742954895    0.87593242513030
C        13.96092542341556    1.97960975772893    0.10701269066151
C        14.97995594283305    2.70571286234979    0.71581473642557
C        15.48381687857539    3.85232212320441    0.11376066901103
C        14.97220727724372    4.30367937174328   -1.09009035751462
H        15.35463367948543    5.20330405093133   -1.54408570768610
C        13.95671988558486    3.58529983634988   -1.69835483952694
C        13.46008738056769    2.42358970573567   -1.11606431432634
C        14.48504510646655    1.67489243029916    5.21820970958018
C        15.02027146820602    1.19618558943514    6.41043990123879
H        14.85666924002311    0.17553677171868    6.72103109261754
C        15.76017409200412    2.04847825206540    7.20894133841939
H        16.17624692635605    1.68073747824388    8.13454147354976
C        15.96139195567167    3.36736932919711    6.83270502778255
H        16.53990176639794    4.02317686694895    7.46543948257228
C        15.40619725287638    3.85015004548088    5.65860073756224
H        15.54220858492758    4.88202911411794    5.37487881136913
C        14.66219160836941    3.00857647973413    4.85440644739031
H        14.19426449633081    3.38133183340286    3.95201656305042
C        12.63251773049127   -0.58330379019324    5.03237650962785
C        12.40745700248669   -1.87070977409747    4.55228332538125
C        11.60867306988353   -2.78032387051869    5.23398605876197
C        10.98093606163504   -2.39643507550545    6.41688019366519
C        11.15601769062491   -1.10009553721148    6.89791816601618
C        11.96476027232985   -0.21304800740850    6.19930058682059
C         9.48590558562150    2.68136708447496    4.05038990094825
C         8.48660612873824    3.65676409249967    4.12883872804296
C         7.14870389245224    3.32368549531083    3.97695552675630
C         6.76090071464099    2.01469986402101    3.74392302513507
H         5.72189116825641    1.76336769310925    3.61637310871726
C         7.74054933716222    1.03959101790618    3.67252603620591
C         9.07641738576718    1.36353979162066    3.83172315703404
C        10.52205763188453    4.29753761470388    1.31450937314450
C        11.66140934930637    5.03064568174411    1.65619629634160
C        11.60620014255947    6.39199084350444    1.88835485129287
C        10.41302047161803    7.08258699449191    1.77008998569688
H        10.36659028151524    8.14220661157266    1.95260664202771
C         9.27478218610644    6.37425084403207    1.42158013970992
C         9.32122660554979    5.00699627277103    1.19844044547159
F        15.76246521532055   -1.15443378412439    4.94152525569295
F        17.68124726248745   -2.28335016565298    3.39729375516242
F        17.57800784430610   -2.00354222576188    0.68098555915038
F        15.50428804425042   -0.64807777988821   -0.45167292965597
F        15.46461557262060    2.31255927407399    1.90655836563341
F        16.46702686212477    4.52440465018151    0.70970333302303
F        13.46061354304113    4.00751623506166   -2.85946622210707
F        12.50184552791342    1.71996216243828   -1.71452280381550
F        12.96877569180167   -2.25427471201634    3.39805396252136
F        11.43965778914884   -4.01096219573950    4.75693577965952
F        10.21509179909170   -3.25705408987400    7.07701199954424
F        10.54483048723547   -0.71656731911677    8.01661310914250
F        12.10043652561850    1.03388879438946    6.64807626826544
F         8.83970450606441    4.93408297660416    4.33865351024102
F         6.21622397935403    4.27651378335021    4.05548385249262
F         7.39188132364958   -0.23687185135739    3.46735116215776
F        10.01847035037881    0.38733258400747    3.76173576504521
F        12.84664761232531    4.37352249355168    1.77396438212731
F        12.72757168351015    7.05238933762880    2.21233551621796
F         8.11410590592046    7.02598765546563    1.30071036310694
F         8.19946522566331    4.34080268836806    0.88496429577908

