61
CSD_code = BIGYIZ | q = 1 | S = 0 | Stoichiometry = C19H37N4Zn(1+) | MND = 4
Zn        0.48496383433426    0.79273213865962    7.08221506650522
N        -0.65203532393324    2.67452353289407    8.18392466233746
N         2.17632206562964    2.33391511237567    7.28711375713204
N         2.08800308991535    0.08481662053079    5.45269527692647
N        -0.81072548937414    0.74146416788596    5.09561485850667
C         0.38117794892429   -0.74431174595193    8.34698299527375
C        -0.18296838717962   -1.96951911452888    8.00287734904549
C        -0.20870385705050   -3.03917977328957    8.88290502779715
C         0.33518804813056   -2.93198281467520   10.15403693616264
C         0.90776590509314   -1.71726930813428   10.50967753213581
C         0.92855772794206   -0.65264638719025    9.62612207932550
C         0.30490422462402   -4.07364160723769   11.11923188743494
C        -1.41892789481842    2.10512041217275    9.29372399986281
C        -1.53863239265259    3.56245248888632    7.43637848894051
C         0.48402996815849    3.44122204318661    8.70320887630390
C         1.57307814796289    3.61961835257477    7.64744226294922
C         3.18048341818231    1.96634347979543    8.28708338853809
C         2.79406410776621    2.39426816919920    5.96169045030484
C         3.22354591044469    1.01032317575967    5.47907739362023
C         2.53891252471846   -1.27541215532967    5.74386709721483
C         1.40548119931259    0.11715132252906    4.15760624682671
C        -0.07094688789792   -0.23972894057257    4.29421445989379
C        -1.00518189318120    1.96502628799423    4.31787234091347
C        -2.13074136848401    0.19385409240626    5.41592141019342
H        -0.62080350614221   -2.11539634074764    7.02385539116950
H        -0.66006401697650   -3.97037676539979    8.57163802263470
H         1.34409083314724   -1.60329370872632   11.49189618288009
H         1.39175160113133    0.26809716601970    9.95567726701887
H        -0.35648105621708   -3.84096589045139   11.95322842674313
H        -0.05152174373038   -4.98155211707879   10.64056409455321
H         1.29749610816255   -4.25678044259585   11.52661036500817
H        -1.80268471472404    2.88902550053936    9.95647143430537
H        -2.26087606470339    1.54074119764317    8.89862028101956
H        -0.79865050374622    1.42467387933791    9.87111877105123
H        -1.92970421559362    4.36304784688125    8.07724174898596
H        -1.01043308541754    4.01952491587631    6.60366447999552
H        -2.38410037619519    2.99554158671617    7.05379966727221
H         0.16113783264672    4.43114637734198    9.05428237616792
H         0.89250220926104    2.90332953163138    9.55951184123704
H         2.33383198486390    4.31514858314849    8.02536416557022
H         1.13228366900405    4.06256339243232    6.75297943823460
H         2.78855964857051    2.12676157231403    9.28713345522152
H         3.43915657195457    0.91446162702677    8.19945634172795
H         4.08769500196815    2.57124456358408    8.17545130874843
H         2.06119337653726    2.80577499225601    5.26430921518580
H         3.67181804839471    3.05641080375218    5.96609982633143
H         3.98283927586700    0.61408170221355    6.15258597729664
H         3.68653185684053    1.10456611810558    4.48846429688239
H         1.70318505232385   -1.96649292121797    5.68043942744117
H         3.31432177319890   -1.59904317063360    5.04031419341910
H         2.93266712839796   -1.32698486515266    6.75670755870101
H         1.49705939617838    1.11642414494721    3.73145300991099
H         1.87430762352576   -0.58522142481950    3.45512785463877
H        -0.15727865569523   -1.21099527691525    4.78331336226164
H        -0.51018510905866   -0.32465073906208    3.28981608470958
H        -0.05911779950118    2.47446653294910    4.15476546072843
H        -1.45438155526070    1.74601524744299    3.34156878064149
H        -1.66833945232404    2.63832744891863    4.85223617354943
H        -2.69560673341201    0.91557442001515    6.00109842996310
H        -2.69698622064167   -0.03573244581785    4.50600145476011
H        -2.02852880920274   -0.71390259242063    6.00524998988314

