72
CSD_code = BIHBUQ | q = 0 | S = 0 | Stoichiometry = C28H40N2OTi | MND = 8
Ti       -3.03712164163688   -2.19856029170943    5.92248757913098
O        -3.39792353488290   -1.13705605716336    7.28798844146358
N        -1.51042203519028   -1.35874483340794    5.29685963417902
N        -2.22312076642933   -3.59409115319384    6.77704920365201
C        -4.60188782185266   -0.71867295353768    7.67331953760463
C        -5.70571789044984   -1.11273915984292    6.88461435934943
C        -6.98845151712029   -0.72795609473244    7.21168463839494
C        -7.22465430152023    0.06159738236610    8.33437360674078
C        -6.13008116948572    0.45539174599341    9.09385026938050
C        -4.81964117943562    0.09620876954260    8.79814108156756
C        -5.30848742931370   -1.93312839023585    5.72197514975889
C        -4.71946310081432   -1.40984817370127    4.54953502813007
C        -4.08727881194811   -2.46270725109950    3.84384954176939
C        -4.34703735043986   -3.67776507191774    4.54357724428842
C        -4.08472341350001   -5.02657273581521    4.24999632790086
C        -4.53484495476888   -5.99684266178849    5.11284018479691
C        -5.24323415601407   -5.66775744306886    6.28055423082515
C        -5.52394499835387   -4.36170124321959    6.60172461233509
C        -5.09391582108792   -3.34373482671628    5.73406609254395
C        -4.80078591468395    0.03513791077954    4.14279993020300
C        -1.33597762900291   -0.53684541124535    4.12328059670760
C        -0.44933893129475   -1.08169358067197    6.24243280929137
C        -2.53784295524791   -4.08724093063399    8.09205624208736
C        -1.28618703904473   -4.44639423955710    6.08932351531780
C        -8.65297364762152    0.46455552765508    8.67210154517389
C        -9.49129328010656   -0.80187566774932    8.89664218381718
C        -9.23466706638061    1.26987728110098    7.50128281728295
C        -8.74832520157733    1.32628507038708    9.93414453596457
C        -3.63057105226045    0.57347747236106    9.62288371796757
C        -2.72129948687439    1.41193714388771    8.71189089784928
C        -4.03921069487391    1.43424354076017   10.82183188202883
C        -2.85116275494631   -0.64115121893878   10.14759598013902
H        -7.80051007459865   -1.05559369253674    6.57877243932126
H        -6.30019612626739    1.07297534038509    9.95668517684176
H        -3.70542361912060   -2.40587894398747    2.82944440149724
H        -3.55756866216023   -5.29399541712706    3.34157209605216
H        -4.35125495859058   -7.03895681319008    4.89105887235559
H        -5.57995020410164   -6.46525549008609    6.92807220801986
H        -6.09664669070850   -4.11313675704938    7.48758839926840
H        -4.45629093364310    0.17286603734145    3.11799376349857
H        -4.19672158589141    0.66355642550907    4.80560727072986
H        -5.83327016115854    0.38305921405678    4.20982654134059
H        -1.42014696698978    0.53927441881572    4.36406294025509
H        -2.07346478554433   -0.78080265695924    3.35759173581077
H        -0.33330589750132   -0.69220423784699    3.68995674617747
H         0.53621586698044   -1.30331474677622    5.79854626600195
H        -0.58447060193697   -1.69059102858411    7.14012620440764
H        -0.44634433146666   -0.01678495276969    6.53479133786725
H        -2.93266722034018   -5.11638774052762    8.04813212219426
H        -3.29149033941516   -3.44454066303197    8.55678828332945
H        -1.64214017823917   -4.10435865355088    8.73744230333738
H        -0.34570227254543   -4.54315422377348    6.65841484121667
H        -1.05792938914411   -4.01965817527617    5.10552560932261
H        -1.69505133658414   -5.46217160113297    5.95326968267338
H       -10.51627569039592   -0.53560388995639    9.14731537802871
H        -9.07578611768997   -1.38577023583569    9.71531827498014
H        -9.50956394500535   -1.42681801221725    8.00829969542591
H        -8.63276159393430    2.15845616183968    7.32197452991651
H       -10.25254274649094    1.58157319540487    7.72716027147414
H        -9.25383799297635    0.68154139754546    6.58823709588706
H        -8.19790565140673    2.25672049054122    9.81602056567304
H        -8.36733549589880    0.79310075258178   10.80195915496069
H        -9.79068964953960    1.57536090604386   10.12421118835107
H        -2.39408593784631    0.81828490119093    7.85912081172929
H        -1.84376136741659    1.74771807125366    9.26123993884533
H        -3.25832880721289    2.28601646050306    8.34704676927650
H        -4.56037475758540    2.33393503779034   10.50283820515643
H        -3.14643283031652    1.73970981920211   11.36421150296226
H        -4.67404638846901    0.87701989372279   11.50698804836844
H        -3.49991229026921   -1.27089077763144   10.75426415177463
H        -2.01570648220160   -0.31176393878577   10.76263832535755
H        -2.46083423821784   -1.22986832998436    9.31833343267157

