73
CSD_code = BIHCUR | q = 0 | S = 0 | Stoichiometry = C29H40ClNOTi | MND = 8
Ti        3.85402043549029    0.48919149250110    3.90984983622835
Cl        3.43234774816736    2.64076734157062    3.75109444227695
O         5.47927461934908    0.56910884268592    4.51394113429653
N         2.93162657917359    0.10935465016597    5.41896010601332
C         6.59297304381702    0.15245220177162    3.91687157028829
C         6.42716769749108   -0.61512179003725    2.74435835405555
C         7.51889388442542   -1.12123944042427    2.06464095635030
C         8.80490800558612   -0.88494649382585    2.53491519299358
C         8.95130253855513   -0.10246170719737    3.67834651778186
C         7.88660141233357    0.43781169715642    4.38523502994355
C         5.00750760289709   -0.73285829536381    2.34874368975709
C         4.32183285675346    0.28398226943468    1.64893271642542
C         2.92396821357480    0.12000145525139    1.83015718209861
C         2.71738386343325   -1.07416175924645    2.60169915817281
C         1.56231760085994   -1.80370632101656    2.98793528940241
C         1.74560259070535   -2.93729140673732    3.74476485657471
C         3.01482350282014   -3.38774275034189    4.14274084808881
C         4.16590850649246   -2.73939077200809    3.76626621486207
C         4.02892488890734   -1.58178430177280    2.96387134739128
C         3.38386295621920   -0.67860125185635    6.53607186705401
C         1.55562241805539    0.51523107159681    5.56239575979357
C        10.04683018916021   -1.43471311168662    1.84845562289437
C        10.94603284292119   -0.26886563178346    1.41356996040830
C        10.80480652041049   -2.33619469088352    2.83334480387762
C         9.71143988031042   -2.26458346544223    0.60603540043802
C         8.06099305853688    1.34223601371278    5.59752256634218
C         9.53152499217119    1.56848310858001    5.95993857910288
C         7.42522305376565    2.70484508873994    5.27965922438432
C         7.35581930964520    0.71471849196455    6.80880874845028
C         4.98232357087742    1.36797737217762    0.84702593991739
C         1.89718720846564    0.97073057378740    1.13588062859161
C         0.18031243366093   -1.39283639406399    2.56533615267444
C         5.52464760854682   -3.23763368765040    4.16295284758040
H         7.33932278644938   -1.69528704196802    1.16972897996967
H         9.94917439203380    0.09760879044556    4.02913616295550
H         0.88178426644595   -3.51497841267335    4.04407008005021
H         3.07942054998245   -4.28105371104964    4.74823320324451
H        11.28033164374599    0.31484294033511    2.26649638449918
H        10.40455758018182    0.39163944869934    0.73966046765194
H        11.82480135649832   -0.64658889014230    0.89492734717408
H        10.16737596357113   -3.15575161503083    3.15868962472142
H        11.12263435999602   -1.78294278193787    3.71249209185923
H        11.68870906954734   -2.75415523397962    2.35596237260251
H        10.63120202514334   -2.63837043225102    0.16038553433315
H         9.19823106742443   -1.66220639364358   -0.13975822020074
H         9.09118343641017   -3.12031758329196    0.86225413645582
H        10.02084263844103    0.63220427518209    6.21974769999970
H         9.59084945570754    2.22866919554067    6.82281879735907
H        10.06993978676705    2.03982403842626    5.14092251429303
H         7.91182797949722    3.15427220931266    4.41569672787851
H         7.53653862316332    3.37656455736935    6.12843660647550
H         6.36103974734915    2.59930771109845    5.06285749342449
H         6.28388798007323    0.64258528076886    6.63037113647409
H         7.51582931498013    1.32923161642087    7.69243612596392
H         7.75085233451379   -0.28131401253092    7.00345066398394
H         6.06671376263832    1.27363303156348    0.91146222737213
H         4.69611336161931    2.35585139056904    1.21755506292517
H         4.68857638281360    1.29972812430989   -0.20243849523251
H         2.30211823192011    1.96578621580052    0.95152485115643
H         0.99310094336307    1.08262826930214    1.73128851867424
H         1.62238560936226    0.53227191124829    0.17229888863668
H        -0.54149460497387   -2.15301630267751    2.85633924890836
H         0.12995752722406   -1.26647366414184    1.48525308408156
H        -0.11075426681737   -0.45241030630957    3.03448136193743
H         5.44107379928651   -4.14831702794680    4.75173201153436
H         6.05138877714485   -2.48425752000112    4.75202550138795
H         6.12843995469968   -3.44432767083220    3.27967690102035
H         3.32465539081512   -0.10404696751069    7.47472387943407
H         4.42058823851402   -0.98501859100580    6.37319213797231
H         2.76395216975032   -1.58222005570513    6.65301783000734
H         0.89208748997036   -0.36164513790037    5.64684836356344
H         1.25149067666744    1.11599905227654    4.69689901792080
H         1.42185856449152    1.12659289409994    6.46998113301775

