84
CSD_code = BIHCEB | q = 0 | S = 0 | Stoichiometry = C32H48HfN2O | MND = 8
Hf        0.64585634169462    2.83552171583129    8.80595504649140
O         1.10247523916600    1.87386955124850    7.18572757229899
N         0.02326270308484    4.61138282236585    8.16635257895325
N         2.26745336008579    3.04338607513980    9.92780340045520
C         1.16499197117156    0.53278680697360    7.31197203058286
C         0.58424001146166   -0.06600998727100    8.45206971495231
C         0.72477748959055   -1.42378063875338    8.70149154788944
C         1.41007719719878   -2.23917535338508    7.81583036554815
C         1.88855140404543   -1.65362898252791    6.64749187296001
C         1.77790243521985   -0.30139848414413    6.35453033171872
C        -0.22722008089850    0.79915078423599    9.32772614238767
C        -1.38020351416730    1.52708957074338    8.88123651229115
C        -1.84874068502238    2.33056387570898    9.93442517137387
C        -1.02811077481100    2.10042892495309   11.06859701665952
C        -1.10210615160037    2.54211526000210   12.39812867980162
C        -0.18464003891943    2.08081370273211   13.31094240579777
C         0.82277796399266    1.17630559183700   12.93820254538473
C         0.92178176334479    0.71021455784849   11.65073224724130
C        -0.00539563065147    1.15488799136709   10.69369355793138
C         3.40595589979521    1.26245409092608    5.28671702080197
C         3.45444081258432    2.36846908616103    9.44796293094026
C         4.19459145277002    3.14217676415505    8.34164230251886
C         2.55947540526573    4.25232869058877   10.67215499192719
C         1.28161427312203    4.83317757795396   11.27003426721927
C        -1.34951337495363    4.99414428223401    7.86722375877250
C        -1.93513583107836    5.90937937797791    8.95489232157241
C         1.00485112689126    5.43839413571988    7.48644695834140
C         1.25665072600349    4.98903537264983    6.03643566202795
C        -2.03075732459874    1.33088100148349    7.53684017545559
C         1.61733392202245   -3.72852370712201    8.04658831118389
C         1.05448995769259   -4.19378770552480    9.39235433583890
C         0.91147575639961   -4.51639658114717    6.93403855040799
C         3.12094372738811   -4.03762694866754    8.02637265265214
C         2.27273198507197    0.26388499470641    5.02688941806764
C         2.80178775672030   -0.81140954791176    4.07210444307700
C         1.10160267997549    0.97029330374487    4.32886079143631
H         0.26915725803512   -1.81395818412529    9.59736320742559
H         2.37431462150534   -2.29134924196149    5.92997628368532
H        -2.78176824798811    2.87397092061792    9.94222688042387
H        -1.88241249448104    3.22911845951272   12.69766478813167
H        -0.23822142234087    2.40897542744132   14.33927638735255
H         1.52114648766026    0.83565088795689   13.68906253249917
H         1.68211038867525   -0.00973183150016   11.37681122127246
H        -1.45752366272470    1.80843412438770    6.73458325338095
H        -3.03993998769752    1.74169849180533    7.53576359128871
H        -2.09288664504371    0.26612178688362    7.30636891159616
H        -0.02134051052522   -4.04326684993886    9.43996059927919
H         1.52415268447838   -3.66173294909351   10.21627478589806
H         1.25076484436803   -5.25662182914828    9.52084018975368
H         1.02963235817109   -5.58588862423112    7.09678255270061
H         1.32008179568275   -4.27343150962062    5.95699460202431
H        -0.15125249173820   -4.28341226828457    6.92649875168292
H         3.28909215871134   -5.09721472264250    8.20873257312993
H         3.63076702935197   -3.46857805702504    8.80101325905972
H         3.56588911686692   -3.78302515629014    7.06840111775751
H         3.05356169749060    2.06769845187649    5.92188026340494
H         3.76115750657563    1.68576722974888    4.34900249663640
H         4.23816894672748    0.76580994225288    5.78198102189314
H         3.67803803920565   -1.30905575079241    4.48149333681319
H         3.09438777985650   -0.34078734173585    3.13517098031913
H         2.03767542320244   -1.55289784118148    3.85014321521840
H         0.30385234883902    0.25852234018897    4.12439894237375
H         1.43002353373711    1.40472245707981    3.38659187048074
H         0.70598546108591    1.76413549240303    4.95536011448190
H         3.15357318211369    1.38539270501111    9.05453980371168
H         4.15337324694256    2.19404704381326   10.28388529832912
H         3.47109677835038    3.46617398245754    7.59056320694893
H         4.94124829266165    2.50847654483932    7.87037450958947
H         4.69670649269745    4.01707093768616    8.74853154730935
H         3.04293884738188    5.02663735823293   10.04415217042633
H         3.26505963922245    4.01426691885752   11.48643918912532
H         0.55483840511717    5.01695604017781   10.47266760916562
H         1.49716688405286    5.77127338021635   11.77790540245321
H         0.85813668482257    4.13603300475156   11.99027782363665
H        -1.98286241795293    4.10196187885817    7.78597441670752
H        -1.40340300722372    5.52162365458362    6.90432200833428
H        -1.94273180702332    5.39312281970453    9.91292256200130
H        -2.95271683020187    6.19755209617195    8.70052914868898
H        -1.33288656436492    6.80976622092409    9.05339445079546
H         1.95101876688879    5.38104409719809    8.04292958829704
H         0.68481299102132    6.49170913448563    7.48327521714511
H         1.47537874143371    3.92094314120882    6.02806825894158
H         2.09389726250677    5.53281509513639    5.60447263624836
H         0.37737043842038    5.16576211797334    5.42028978990418

