113
CSD_code = BIHDUS | q = 0 | S = 0 | Stoichiometry = C50H60O2Zr | MND = 12
Zr       -0.16567155658361    2.55733431123835    5.79070733050019
O        -0.30221270289763    4.20399399489427    4.81900123734372
O        -1.06189988859797    1.46159338647423    4.48354433188788
C         0.38442942604440    4.31774896941765    3.66980695509459
C         1.54976905742215    3.53012239835098    3.51268157030828
C         2.27694944632014    3.55273159795151    2.33289430453317
C         1.88011776792134    4.35797581631887    1.27494238713469
C         0.75905338665437    5.16160582545067    1.45991524004225
C         0.00080385126815    5.17701998427078    2.62211892607166
C        -2.34524355080235    1.78987077440637    4.22979216555907
C        -3.10806949787520    2.33640152021021    5.29010275820698
C        -4.42088228564264    2.73740466136337    5.10267371231624
C        -5.03030317479227    2.60024179409036    3.86374969980582
C        -4.28491349556877    2.02333379739234    2.84069136732257
C        -2.96695516841022    1.60891991361150    2.97897872184747
C         1.91466748481542    2.70236380298198    4.68445563961366
C         1.79674059304129    1.29123399641150    4.82426271889351
C         1.89913042645289    0.94100758499823    6.19451710495246
C         2.14787557850854    2.13659028107789    6.93418429549957
C         2.54860072132839    2.38614454097766    8.26092825579923
C         2.79074409019131    3.67747614482442    8.65878756057082
C         2.63679815972941    4.76170476163753    7.77607728193839
C         2.30477954518764    4.56364577583436    6.45831075132977
C         2.11153172533275    3.24544304081907    5.99858872245918
C         1.75647675867405    0.30100600165390    3.69677719681032
C         2.04676971105263   -0.47072914287475    6.69435728933477
C         2.61543103599148    4.40058044727455   -0.05635986999064
C         1.64625338738537    3.99985968652281   -1.17766888737267
C         3.13595395217601    5.82328388847321   -0.30326267976493
C         3.80933660089650    3.44281148214616   -0.09634421413601
C        -1.20892046052149    6.08756733444895    2.79069613502429
C        -0.95796875065617    7.00194180706787    3.99876995949484
C        -2.45818101126933    5.22875733414186    3.03027176267597
C        -1.47040255369543    6.97608698158199    1.57030722231728
C        -2.39469117300920    2.46377800607666    6.58012366083543
C        -1.74245531067470    1.37819497097379    7.23611299467913
C        -0.84308624839781    1.87978681577957    8.20705593926011
C        -0.91709732984278    3.30751601247910    8.16615867347075
C        -0.33261479076040    4.32240608034704    8.94804539873386
C        -0.64224687530530    5.63371243717976    8.68708028274147
C        -1.55127343605537    5.98694646949843    7.67403926202396
C        -2.17981752032940    5.03158445574231    6.91493274593781
C        -1.88514697937993    3.67456435809039    7.14920737706994
C        -2.04680488553771   -0.07698863075683    7.00014530627884
C        -0.23987962863417    1.05579583927986    9.31089184060187
C        -6.45857208632833    3.04527513466890    3.58759682129655
C        -7.12311298226800    3.67146163254092    4.81654074697781
C        -7.29460359739338    1.83145367367483    3.15857460840244
C        -6.44974483579782    4.09264402898560    2.46536484343217
C        -2.19775468017621    0.97665686191459    1.82572214153137
C        -3.02675882108005    0.83036740022391    0.54607510774126
C        -0.97888692330479    1.85186169867754    1.50570549190041
C        -1.74784690944207   -0.42538240103898    2.26028014995482
H         3.15601603424608    2.93147046458362    2.27166417045462
H         0.46207778533476    5.80607064845594    0.65067519263483
H        -4.94283569299192    3.15416817913248    5.94901727388881
H        -4.75832069009906    1.89634798680268    1.88260258863751
H         2.70663283129359    1.56523489459781    8.94772581724743
H         3.11897555756973    3.87314562346715    9.66955797511677
H         2.81523170446962    5.76154184740033    8.14245802193676
H         2.25750252484114    5.39311411101726    5.76160145055106
H         1.52926915139865    0.79765252885356    2.75584313310360
H         1.01283280737929   -0.47518377177929    3.87853500643248
H         2.73019952949454   -0.18678025369570    3.60246616596147
H         1.18771753373821   -1.08940134503677    6.42282539403111
H         2.16268994024660   -0.48934001301720    7.77590664780357
H         2.93333629060608   -0.93616341405358    6.25692866691753
H         2.15946824943753    4.00092093634171   -2.13722324691521
H         0.80725167294296    4.68675449336712   -1.24013659306506
H         1.25482656867042    3.00160105884516   -0.99477921476279
H         3.68335234301021    5.86659164703939   -1.24276489545536
H         3.80471275258143    6.12179148255413    0.50112288082452
H         2.32066955016919    6.53951608049421   -0.35102277920198
H         3.48952360929470    2.41482525959999    0.05659197159159
H         4.54486227455449    3.70359274285679    0.66063446222757
H         4.29231747338330    3.50437972279683   -1.06971378680697
H        -0.08339657288938    7.62525901764849    3.82008349088188
H        -0.78741018357150    6.41008493877648    4.89444341688756
H        -1.81614278060128    7.64992142461519    4.16662590239364
H        -3.31523321438825    5.86493415585179    3.24392335343465
H        -2.30501144021533    4.55159915119618    3.86891832467880
H        -2.68507868662450    4.63256252883558    2.14894855032001
H        -2.33893634671289    7.60207484115564    1.76593809523553
H        -1.68167712169922    6.38034924668424    0.68509554042783
H        -0.62473014679344    7.62994817700684    1.36944939532672
H         0.33474049893141    4.07005370144075    9.76068098524151
H        -0.19650821251608    6.41666692273148    9.28277563023550
H        -1.77072694896075    7.03238994844255    7.51358361393020
H        -2.91945424499244    5.30370082283597    6.17278151547281
H        -2.44469515762574   -0.53307071551917    7.90953870803839
H        -1.14864524354474   -0.63222439470530    6.71211149467894
H        -2.78913883123615   -0.18272407422253    6.20853942919881
H        -1.02597497523921    0.71912000679284    9.99270873597979
H         0.46947921188051    1.64391224961665    9.88762679181403
H         0.26288750196562    0.16788647852565    8.92765034301504
H        -6.57580587972588    4.54953472215800    5.15046010606715
H        -7.18363689709933    2.95770281049978    5.63446791944689
H        -8.13566102099327    3.98081744216872    4.56450133944131
H        -8.32498979539685    2.12981650943982    2.97598369786735
H        -7.28696794551219    1.07587686722296    3.94124314971640
H        -6.90387708713370    1.38353856574063    2.24929716382970
H        -7.46114301730518    4.44309730886516    2.26947084084633
H        -6.04734819700418    3.68233054870318    1.54372297928231
H        -5.83739542636295    4.94378247962262    2.75388954579223
H        -3.89681525425934    0.19790115126660    0.70766995913534
H        -2.41246754116833    0.36542863017885   -0.22276192911809
H        -3.35153867168330    1.79866611660679    0.17248291512330
H        -0.34656623497298    1.36498931134446    0.76518738147329
H        -0.39552041013074    2.03742937026805    2.40608245123498
H        -1.29622494302956    2.81262942038438    1.10650113732007
H        -2.61597736330411   -1.05819970106710    2.43649888779007
H        -1.17132549926311   -0.36336623088867    3.17858289076728
H        -1.13388931777588   -0.88498000062823    1.48816959733813

