113
CSD_code = BIHFAA | q = 0 | S = 0 | Stoichiometry = C50H60HfO2 | MND = 12
Hf       -0.21296660569717    2.63973120005327    5.71436822579113
O        -0.37008235075365    4.29388170225987    4.81992286373517
O        -1.02893221016824    1.58647434175354    4.35486228618384
C         0.34787874816515    4.34711706050263    3.67954003050241
C         1.46861385592829    3.49299141256041    3.56434436580205
C         2.21776698152841    3.45962932746592    2.39594521207720
C         1.88646478960999    4.26968416501785    1.32049427732025
C         0.80200679982857    5.13050099514195    1.46642262563164
C         0.02026661375074    5.20154138516221    2.61125802556829
C        -2.33860220724323    1.85700125063186    4.15224511265023
C        -3.09060358283282    2.34425113129447    5.24564938257627
C        -4.42119221201271    2.70404695517189    5.10001177030112
C        -5.05461020598367    2.57908212854066    3.87283342855226
C        -4.32018647642671    2.03928422122481    2.82184975553442
C        -2.98740044208782    1.66165162497316    2.91854344251916
C         1.79764745269555    2.66625663042869    4.74742183376736
C         1.85126124487750    1.23862314096461    4.86654276736578
C         2.14167799000911    0.88713282489969    6.19518571949743
C         2.29635121615597    2.08127694367859    6.95133643392594
C         2.75776303165172    2.33692499133190    8.25324377723633
C         2.90362700375203    3.63455384731165    8.67659262668845
C         2.60162406176392    4.71934966635316    7.83606255159831
C         2.17812977012628    4.52244115902895    6.54465607966660
C         2.04002559123223    3.20071707998196    6.07086843287548
C         1.80401807036639    0.27717378239912    3.71643913717904
C         2.41959594055188   -0.50888036728756    6.66937639906935
C         2.65814317094025    4.25914119049377    0.00927235325719
C         1.70131227135218    3.89423674825054   -1.13434457191898
C         3.25579460136347    5.65117743746955   -0.23733775791015
C         3.80300985658043    3.24255767658469    0.01265941800905
C        -1.15879247847901    6.15959982577017    2.73142844531196
C        -0.92011239086659    7.08610444722084    3.93246737783311
C        -2.44868789787528    5.35396552194747    2.94002633286741
C        -1.34513719249579    7.03696127351625    1.48915033185442
C        -2.35998570811101    2.45589851159118    6.52561119465821
C        -1.62890851509077    1.37808841847841    7.12314530191276
C        -0.73652268106089    1.89504805825487    8.09439570995186
C        -0.89613526966450    3.31625379134747    8.11477790114275
C        -0.35785742783353    4.32561167497390    8.93437277259351
C        -0.75564983915451    5.62498090089818    8.74731258359263
C        -1.70278449148526    5.96900311818043    7.76725389942893
C        -2.28193602876538    5.01487598787760    6.96950028289097
C        -1.90335460147931    3.66934088092374    7.13571824424029
C        -1.88932202122737   -0.08229038929856    6.87440747045560
C        -0.07068321350270    1.06866260794512    9.15769799897811
C        -6.49934539688627    2.99352760731663    3.63929641467214
C        -7.15050008205383    3.57558961393153    4.89673815328162
C        -7.31568966403806    1.76968425420572    3.20123435948488
C        -6.53904620875734    4.06580116019671    2.54150592037119
C        -2.24407780677661    1.04017588396528    1.74211780065416
C        -3.12514322543613    0.84683357799910    0.50369003943221
C        -1.06764340550819    1.94177932235910    1.34903745414468
C        -1.73070994922530   -0.34125124933368    2.17301408429968
H         3.06211058045358    2.79125588300439    2.36073761614801
H         0.55452455601337    5.77342758798201    0.63991347609461
H        -4.93596155250253    3.07940090813410    5.96932909175516
H        -4.81624128200390    1.91161911479577    1.87573901164932
H         3.02811361046439    1.51719115042343    8.90426081988328
H         3.27336219465555    3.83465181018112    9.67191457205717
H         2.73034541854000    5.72328529192172    8.21167533607223
H         2.01512873162783    5.36034911679261    5.87734942172013
H         1.35265423766829    0.74098973283557    2.84281214173567
H         1.23972170353802   -0.61750937271404    3.97563903196862
H         2.81738900332727   -0.03622990992317    3.45589784577852
H         1.59783551727447   -1.18541585321742    6.42804939734185
H         2.57807945637305   -0.52521977700706    7.74476801735872
H         3.31777410227441   -0.90282455310972    6.19052669367165
H         2.24150688734497    3.85419594118529   -2.07804805759830
H         0.90232283153934    4.62349038611326   -1.23067551953078
H         1.25243394592982    2.92090653307521   -0.95010850006056
H         3.82602512728431    5.65689542416852   -1.16406376375698
H         3.92039887961267    5.92316143302731    0.57973687381673
H         2.47958057826725    6.40755441299598   -0.31052102624156
H         3.42773326807652    2.23370821397370    0.16648466502472
H         4.52935812776952    3.47496429224458    0.78744351226741
H         4.31532044964644    3.26919758363224   -0.94713201216152
H        -0.00437126852812    7.65687001566933    3.78873953286253
H        -0.83178115937071    6.50980313994177    4.84863743441913
H        -1.74911488136239    7.78295456434310    4.03960516343265
H        -3.28945711197566    6.02793527215549    3.09324865430877
H        -2.36202860325571    4.70222981027162    3.80570996459118
H        -2.65736494506168    4.73550957833849    2.06986368668956
H        -2.19181075677153    7.70213270549869    1.64733066725631
H        -1.55472683956030    6.43534570116587    0.60756440904189
H        -0.46674065427979    7.65128079713949    1.30469467532097
H         0.34954725155796    4.07474398446684    9.71169299828759
H        -0.34604669594552    6.40428454339426    9.37255847968523
H        -1.98707477225682    7.00511874065975    7.65829557263192
H        -3.04119111906783    5.27753536407245    6.24546067313918
H        -2.39120527916967   -0.52471561060648    7.73778625318124
H        -0.96012557239720   -0.63243089019092    6.71401208855048
H        -2.53048405093290   -0.21407558862369    6.00373048789736
H        -0.81980508718492    0.69770834499035    9.86200691840714
H         0.64730584369743    1.66480657672953    9.71415536448813
H         0.44206955104418    0.20542195828008    8.73621561494823
H        -6.61616772227577    4.45822035488829    5.23953890101397
H        -7.17719320220693    2.84184488055291    5.69867042059807
H        -8.17499870598849    3.86718852620329    4.67377979365007
H        -8.35679753591893    2.04731039033101    3.04978870276637
H        -7.27175373728190    0.99672969826617    3.96554070222895
H        -6.93668395542407    1.35228878026612    2.27270844183158
H        -7.56200697068600    4.39815560058703    2.37700655320723
H        -6.14949809401105    3.68507870411824    1.60179431688109
H        -5.93836576613002    4.92348736149816    2.83551931061538
H        -3.97010908502302    0.19585039960429    0.71659752512085
H        -2.53332897496992    0.38157982117825   -0.28230708466771
H        -3.49083182975695    1.79842727023566    0.12485909660273
H        -0.46660011359666    1.46247092103950    0.57844905844351
H        -0.43709700654083    2.14868362728574    2.20901364501884
H        -1.42882224711132    2.89147685370071    0.96139257193212
H        -2.56859509725276   -0.99046906973929    2.42133231727190
H        -1.09071353661305   -0.24988693114742    3.04440641104442
H        -1.16212391483315   -0.80193800099385    1.36760595319592

