37
CSD_code = BIHKAE | q = 0 | S = 0 | Stoichiometry = C8H20Br2NiO4S2 | MND = 6
Ni        1.49256931368775    0.00042577265665    4.78080785135408
Br        1.33073421653546    2.25532992563020    4.34305535806794
S         0.98528984099643   -0.22138054918096    2.60529154265477
O         3.78951402261278    0.15932985562351    3.97116552693145
O         0.11632178648581   -3.22858719613397    0.08049069278770
C         3.77337483731948   -0.38876382193953    2.67554366766732
C         2.60434531286648    0.13760304970027    1.84287136062198
C         0.75040965729341   -1.92966739753773    2.03025513267660
C         0.16047711872222   -1.93528370204119    0.62200321323932
H         3.93388602674950    1.11615313184904    3.90825806358218
H         4.71304195955660   -0.16831742306128    2.15111934733614
H         3.69461643172257   -1.47151056955947    2.81364344615537
H         2.65289356160165    1.22528328109115    1.76245238596859
H         2.60245260411637   -0.30318140856092    0.84872240418385
H         0.06649234524971   -2.40465664198758    2.73389728097689
H         1.70064717097118   -2.46119419402487    2.06017817486533
H        -0.83816923114973   -1.47561832967710    0.64058488572510
H         0.78655580857833   -1.35837894931336   -0.06412319113259
H        -0.41929238581341   -3.79356682662680    0.64910373583769
Br        1.65480542972252   -2.25428524159538    5.21922328991221
S         1.99976632592379    0.22147591531750    6.95633660912952
O        -0.80435232767729   -0.15925782791469    5.59036388599992
C         0.38074067804997   -0.13769163383053    7.71871893442476
C         2.23438647003542    1.92970553629093    7.53172224935203
C        -0.78835637199197    0.38861369854390    6.88608498453473
H        -0.94854809132540   -1.11612115183207    5.65310068065420
H         0.33229561041207   -1.22537702932477    7.79907429218458
H         0.38258080581618    0.30303878536437    8.71289658933653
C         2.82465800487273    1.93503781113156    8.93981794608514
H         2.91805810196956    2.40509733426610    6.82808959460125
H         1.28400260452852    2.46101234811000    7.50216403261254
H        -1.72799514811889    0.16788298754465    7.41044746384443
H        -0.70981060243421    1.47140580084867    6.74817942712196
O         2.86909340633415    3.22825866943580    9.48160380822075
H         3.82329744351153    1.47526925109637    8.92090965118888
H         2.19870150936564    1.35805623692027    9.62605218775558
H         3.40291575290344    3.79386050272167    8.91189349354100

