56
CSD_code = BIHSUH | q = 0 | S = 0 | Stoichiometry = C20H29Cl2N2O2Rh | MND = 5
Rh        2.05719206415361    2.76776038826245    3.60652742935569
Cl       -0.05044054438322    2.65139438904352    4.52905035744356
Cl        4.14940490581127    2.92241687328241    2.69009988768110
O         0.97133340829763    5.61801037969635    0.78039138829763
O         3.25115636523611    1.08039323032056    7.25259573751910
N         1.40135628490490    3.82689100621216    2.03069403972484
N         2.71894841251612    1.67433161848289    5.17452255761651
C         1.29915376158587    3.29385823957786    0.67104572081106
C         1.11078019876141    4.57023475070443   -0.17594328809594
C         1.18391075078315    5.08675000783925    1.98861327286687
C         1.19327036442789    6.02453946389578    3.15138170336632
C         2.42842843308364    5.72378256410107    3.96383864686560
C         3.69634778807873    6.15120263314493    3.56653756053325
C         4.79801823275205    5.71183165497542    4.28702559347853
C         4.69615669630575    4.82843285553997    5.35385849580878
C         3.42497940427565    4.42590968689282    5.76201846057531
C         2.30132215283774    4.89164765282943    5.07632797556368
C         3.19997143666687    3.44116544931286    6.87617393020827
C         3.04197600019048    2.04965543325401    6.35336050884228
C         2.95557308520345   -0.16256312709578    6.62130788828888
C         2.71824713002519    0.20730980647892    5.14313067403744
C         0.13821910715837    2.30096238851966    0.51910627992804
C        -1.18874464172556    2.83883706667543    1.04155588112644
C         3.87679458639913    7.04466869699730    2.37782446290125
C         5.93274286631753    4.31008374567738    6.02178492731145
C         3.81067843512126   -0.33011475036268    4.21350928685615
C         3.63991559294990   -1.82169721753067    3.95994923060422
H         2.24050381556699    2.78685756825130    0.43249409569977
H         0.21318537370287    4.54187380791551   -0.79690807165779
H         1.97746461021716    4.79209844472022   -0.80541223863306
H         1.17123516592877    7.04656515648290    2.77286297124546
H         0.29817045927787    5.84027141580057    3.75172934991506
H         5.78120623759224    6.03013236987925    3.97184298711522
H         1.31373461536394    4.68674892994288    5.47818740648828
H         4.01538088887283    3.43268178013550    7.60073987016160
H         2.27731762592577    3.68781823853378    7.41277559744516
H         3.80793834825031   -0.83076164311278    6.76076537571392
H         2.07227104242842   -0.59221544242717    7.10233836332667
H         1.73870133669748   -0.13233542015232    4.79106209804578
H         0.06054807909700    2.04741313901497   -0.54090677152463
H         0.38844241322987    1.39175553145735    1.06820255053034
H        -1.98201304647501    2.12648992251383    0.83106023847558
H        -1.13505664269426    2.97772266167382    2.11872195114911
H        -1.45182125827439    3.78756860702716    0.57776950173555
H         4.92659762914758    7.28928999792249    2.24122195050489
H         3.52089715518815    6.55352353243271    1.47362429709373
H         3.31698227632136    7.97203300207813    2.50070685799898
H         6.81936426876356    4.73525293436153    5.55970589816827
H         5.94196620012752    4.56073487383935    7.08278761940138
H         5.98437984979035    3.22673416008558    5.92325312407448
H         3.76293881411548    0.21378212950420    3.26855610154055
H         4.78817197253442   -0.12884861787153    4.65775113803799
H         2.68352561982312   -2.01645991326791    3.48090752129675
H         4.43010262174606   -2.18020080228233    3.30618794681127
H         3.67892406082244   -2.38726754855428    4.88893576946216
H         1.77714818917966    1.52714629736722    2.85784789086148

