71
CSD_code = BIHTAQ | q = 0 | S = 0 | Stoichiometry = C30H30CdN8S2 | MND = 6
Cd        2.08817780120662    1.81751327214301    7.02280256346128
S         1.09444421378266    2.89883022400270    9.12796026641589
S         4.59472571188530    1.31747963966201    7.49136469989300
N         0.20171033755388    5.38225171765215    9.13356442168027
N         1.01502663161830    4.75154236423759    7.12900950100784
N         1.62575440532886    3.88998901997663    6.33070735983482
N         2.54669536712330    1.96632140812017    4.67155073519259
N         5.07369397614661   -0.75142385091478    9.07614365481418
N         3.16205561354106   -0.94287492120557    7.88243670184049
N         2.17303714598374   -0.39989473598511    7.20171500988996
N         0.02956206820990    0.85817771487664    6.20521552631220
C        -0.09635206469080    6.67983405742323    8.57833670167725
H         0.05995982072064    6.65281864566595    7.50357156286969
H         0.55256909347652    7.44063041849041    9.02166105596132
H        -1.13522416071304    6.93904861027883    8.79522280093413
C        -0.12258386211509    5.23725151340929   10.52659578509421
H         0.17143386117259    4.24893944316464   10.86992153952836
H        -1.19815601897182    5.36528046676231   10.67646096926241
H         0.40448894857090    5.99485625770745   11.11269969662270
C         0.77857950628335    4.41259053162792    8.39248438663301
C         1.80730620535243    4.20548688067416    5.07841435833849
C         1.35898292383195    5.48906204354399    4.50240959147382
C         0.57326694718026    5.50350414144269    3.35103385852776
H         0.31232560644944    4.56844539353672    2.87448370943236
C         0.11654591774742    6.69952960019300    2.82973979772952
H        -0.49345299501288    6.69855620910938    1.93779205857240
C         0.43659880962937    7.89651184456898    3.44935263154199
H         0.07872004998928    8.83012909806134    3.04076062181950
C         1.21548869393394    7.89086784757432    4.59455056891191
H         1.46867341274344    8.82252946090158    5.07951625763415
C         1.67235098330533    6.69675254136916    5.12095994803384
H         2.28628222308491    6.69118842564606    6.00827022549678
C         2.47056531813151    3.23055351630892    4.22829247049183
C         3.03571571925726    3.59771695522114    2.99738427100096
H         2.98848264393340    4.62481085721018    2.67016227407318
C         3.66773527472376    2.63976913810332    2.23333736985159
H         4.11465984948586    2.90390928387074    1.28579668706118
C         3.72951872475102    1.33305741161195    2.70266981420177
H         4.21437573878186    0.55636319448475    2.13325522445619
C         3.15802745096296    1.05639507778110    3.93327555597403
H         3.18472089721435    0.05567614543765    4.34895136658849
C         4.77798780386236   -2.00653052630594    9.72170970865233
H         3.90584025114997   -2.45124081672402    9.24997751219663
H         4.57562673220516   -1.84972657114322   10.78514920878742
H         5.63426700328757   -2.67777888770631    9.62385736595478
C         6.28509204044806   -0.11276697836577    9.51264700578647
H         6.42606327456576    0.81384890781871    8.96174809784812
H         7.13748230021325   -0.77315502492005    9.33352003580199
H         6.23205668730335    0.10867095705550   10.58241950984563
C         4.20931309867480   -0.19312664507840    8.20524183840038
C         1.23835213151055   -1.14846827175963    6.68460518817787
C         1.25674799786910   -2.62122363033643    6.77709378157768
C         2.41356018975721   -3.33638815697492    6.47571632895409
H         3.29031419742065   -2.80793939764022    6.13306665599774
C         2.44037363372634   -4.71246313789020    6.60560297911044
H         3.34209749303514   -5.25651524099086    6.36424419916487
C         1.31746817849490   -5.39396816198571    7.04428092375181
H         1.34055649305746   -6.46893205874414    7.14747949192735
C         0.16544213057393   -4.69065217123272    7.35629421907571
H        -0.71055622699680   -5.21666287152139    7.70773516960866
C         0.13344879935120   -3.31508452880136    7.22533554803064
H        -0.75966524595944   -2.76646367701181    7.48915099837929
C         0.14645657968740   -0.46584511289990    6.01216247593035
C        -0.73899943133881   -1.14859380271096    5.16279312065789
H        -0.61231837044193   -2.20649641239786    4.99259765254234
C        -1.74967045718672   -0.44962930444028    4.53816998130313
H        -2.43890316868372   -0.95793817852834    3.87916259714014
C        -1.86651236612729    0.91699385635357    4.76307601267849
H        -2.64789017810596    1.49636286499628    4.29765868811384
C        -0.94176621576708    1.51885743737294    5.60047536683595
H        -0.98625414717359    2.58287867877764    5.80399473760414

