115
CSD_code = BIHWIY | q = 1 | S = 0 | Stoichiometry = C46H63ClN2P2Rh(1+) | MND = 8
Rh        2.31406282003648   -0.26163420360087    4.72676621166974
Cl        4.27122157394032   -1.43201529347664    5.23994893488883
P         3.49612938132634    0.63331895367738    2.92804843108258
P         3.06567005737618    1.26927814704939    6.30256875439967
N         7.40598066777755    1.37181748922059    1.77033592037283
N         3.31428861669239    1.82718906245907    9.95600182786106
C         0.10978786402238   -0.06225937215445    4.44718955930375
C         0.54532799784207   -1.09049688136038    3.53810430335380
C         1.14208465910744   -2.12659398251540    4.30565679550108
C         1.01718938634381   -1.78082218885923    5.70430821469149
C         0.33216024206475   -0.53648250364518    5.78864929928779
C        -0.79907771144801    1.07271950812328    4.10001221130118
C         0.16567257216765   -1.20387408511497    2.09761846856419
C         1.56778461678292   -3.46866012441474    3.81031253676556
C         1.33334463339737   -2.72700547682043    6.81602083040845
C        -0.30627845735350    0.05583744518572    7.00242634240964
C         5.31552243728360    0.81269108541981    3.03503418341349
C         5.98542747680351    1.17418499286414    1.68602294221990
C         7.81256392135879    2.58092553259022    2.46696252237136
C         9.09361392115051    3.16474927957651    1.87736727241280
C         8.17507585197893    0.20530588537570    2.17626801554812
C         7.92811111153692   -1.00893996644857    1.28962946553844
C         3.20927567652264    0.38762983397601    7.92712750809278
C         4.07758842984139    0.99611701045485    9.04111501072806
C         2.57353299151247    1.03792463125280   10.93844044431295
C         1.28215365417246    1.73066037583428   11.36067864319760
C         4.14326163396031    2.84727532367424   10.59276906226257
C         4.43042961529668    4.02904802767490    9.67312394858425
C         2.90766045947712    2.25144293148981    2.34036309207785
C         1.67987300905367    2.32320179393799    1.68414174948615
C         1.16170892148365    3.54391062794339    1.29350043994605
C         1.85812496435129    4.71059590942061    1.56684348224648
C         3.07106463345320    4.64936640208257    2.23296686505097
C         3.59386338707468    3.42899977531657    2.62340043736523
C         3.42326250047307   -0.46923151371502    1.47483500572081
C         3.74400329397011   -1.80666835679866    1.70131981093322
C         3.79822580665357   -2.70033302779163    0.64747869715463
C         3.53285341765312   -2.26642245047932   -0.64183971893143
C         3.23036488372197   -0.93459405310804   -0.87350617670737
C         3.18015504258349   -0.03330625839130    0.17634007344530
C         1.91474984391042    2.66092172213317    6.53177817477663
C         1.37530028463678    3.25462637248903    5.39322888815413
C         0.51781147536651    4.33307518696939    5.50885365031979
C         0.18081695511377    4.81631615084202    6.76377219886205
C         0.70947698542512    4.22074566694832    7.89747690463966
C         1.57654599872834    3.14560363207496    7.78993290185911
C         4.67259127045672    2.10630765475663    6.14355692909982
C         4.75710280797175    3.46871593067323    5.87096590101305
C         5.99517914427473    4.08470109721787    5.79570597990432
C         7.15415495583932    3.35244244801971    5.99439241322045
C         7.07526688954410    1.99326641048711    6.25997152390930
C         5.84336299772577    1.36933941578746    6.33069300981132
H        -0.48721812303676    1.58117323646018    3.19087577449522
H        -0.83651727455318    1.80228246711521    4.90469793293931
H        -1.80705700219488    0.68342157905537    3.94311476370395
H        -0.27603905743974   -0.28147698671345    1.73142418976627
H        -0.58140281365214   -1.99402698549691    2.00405962797697
H         1.00906451606955   -1.47072098804648    1.46377279032340
H         1.68814502754132   -3.47095784615501    2.73039303976032
H         0.80416890290917   -4.20131775366713    4.07756504251104
H         5.69347502758067   -0.15036464760713    3.38772873575446
H         5.55966082065051    1.55816509463896    3.79329036444373
H         5.54232746625254    2.09033673358421    1.28549348993697
H         5.79771484269355    0.37739669863846    0.96501268890871
H         7.01590796477673    3.32031517424353    2.34996717659355
H         7.95110532947474    2.40264736409723    3.54650133461311
H         9.28270307064009    4.14467358077225    2.30793317946958
H         8.98826272802556    3.26706701440527    0.80119031366009
H         9.95239259799856    2.53246367386433    2.08204605910131
H         9.22696866959029    0.48206820094520    2.09102877326646
H         7.98790692627569   -0.05904961259313    3.23165945940069
H         8.68604798381735   -1.76081172025683    1.49241195469425
H         7.99445807840054   -0.72402164031191    0.24315033623322
H         6.95388754717657   -1.45636163860977    1.47341397546419
H         1.14286823788259    1.40954041734698    1.47354720750288
H         0.21465364223156    3.58745231831274    0.77630085798790
H         1.45478723477531    5.66419584494387    1.26317099984773
H         3.61350501751648    5.55684807500697    2.45095064111486
H         4.53161363888325    3.39760458033180    3.15673191460344
H         3.96032801466472   -2.13837539086770    2.70770747171554
H         4.05142625843602   -3.73387213697943    0.83033405893743
H         3.57078176884551   -2.96253813163076   -1.46532027942051
H         3.03982063291609   -0.59086974147665   -1.87872502306769
H         2.96736172709400    1.00631936845991   -0.02244170326238
H         2.50236935694803   -3.78203837730173    4.27284152730361
H         2.33327479549770   -3.14288658707582    6.70004055277186
H         0.62340333398965   -3.55524206970612    6.79175736223020
H         1.26853348180814   -2.24526999954434    7.78794083600179
H        -0.00822923753755   -0.46952663123327    7.90580612077404
H        -1.38837155285613   -0.04091198794456    6.89917150462722
H        -0.07860683620037    1.11471124506219    7.11640687106257
H         3.60870411907611   -0.59756147485441    7.66765155814515
H         2.18754426626911    0.24909073575109    8.28701523954113
H         4.86919529126730    1.60369579027764    8.60333221839339
H         4.56655004167966    0.16800206342461    9.58020705303411
H         2.32147915720550    0.07350597725314   10.49133264029968
H         3.19331431206421    0.83403133051458   11.82471746235559
H         0.76719497775803    1.12485121049778   12.10144195180373
H         0.62515173175052    1.86826586262719   10.50518983670680
H         1.48339409476956    2.70444934857813   11.79777153864143
H         3.60299287987125    3.21697155902992   11.46509137773340
H         5.09197859307150    2.41397388576314   10.94870771172865
H         5.02950049899087    4.76093970619807   10.20816720151891
H         3.50348234818406    4.50097667388949    9.35989420622254
H         4.97882990292301    3.72781662870108    8.78363865375145
H         1.63387795783145    2.86477041217219    4.41871605225424
H         0.11069134532872    4.79189365667867    4.62008033110123
H        -0.49334762573500    5.65396341981236    6.85644824977598
H         0.44639226077694    4.59558093390579    8.87537180121028
H         2.00823463315957    2.69584168070351    8.67462910132116
H         3.85809983867510    4.05028887680933    5.72877892987507
H         6.05300701463152    5.14288950213712    5.59000705495669
H         8.11584500029291    3.83971326105946    5.94512050056702
H         7.97600124984981    1.41860507950094    6.41462899581381
H         5.78337779582801    0.30799011132737    6.51932851548330

