100
CSD_code = BIHYOI | q = 1 | S = 0 | Stoichiometry = C36H56N2O2P3Ru(1+) | MND = 6
Ru        8.42709188445332   10.98054721575319   11.97165765633736
P         6.35161651471984   11.99579235811195   11.38482455535561
P        10.40419852304004    9.70967202499143   11.93555913827865
P         9.39943432885796   12.68634681683733   13.23351783392354
O         5.87654755421447   11.32279160436673    9.97325195092622
O        10.35820823664412    8.73228015542498   10.64180214829475
N         7.54398066910090    9.30652437985672   10.71827441918516
H         6.60659897476975    9.36969828502038   11.12568907854454
N         7.64608277088502   10.19893346604061   13.54483150634269
C         6.08322655025348   13.81637865747951   11.03521735390833
H         6.12590198710143   14.31351935403625   12.00780782701387
C         4.75185819131477   11.59648427976198   12.26322011990644
H         3.96444611207737   12.04119789503362   11.64789853296909
C        11.85384749103601   10.77667968365119   11.41254964283104
H        11.54127801152503   11.75980389844288   11.79228734170757
C        11.14577709958754    8.56324895229371   13.24515967373090
H        11.68410862711935    9.23853827467123   13.91537897037008
C         6.82204479979264   10.92564203775277    8.99846759477612
H         7.65606451724297   11.63136874236564    8.96830141115805
H         6.30522394735544   10.93899220262062    8.03496374523951
C         7.35999189713569    9.51533433124870    9.28025106202717
H         6.66062393788779    8.76266074592490    8.88831652425464
H         8.31861534488284    9.41173649877165    8.76996735296189
C         9.42877130946848    7.68843099437376   10.45296031753437
H         9.80628321409719    6.76249742249447   10.90374503123371
H         9.37687796017209    7.53314594035673    9.37002645180620
C         8.03463989204073    7.96327229866641   11.02334255867103
H         7.35819617404418    7.19470002641415   10.61992374915061
H         8.06739728142622    7.86431885279483   12.11399225743036
C         7.23344849730272   14.32367684930199   10.17084577476759
H         7.23441536357298   15.41180309077506   10.13553702461259
H         7.13461988545676   13.95501951952428    9.15137536694838
H         8.18686966646839   13.98879395366662   10.57552556921347
C         4.74430827117721   14.11570921296671   10.36580843475351
H         4.77668366484099   15.11604105010146    9.93832043644177
H         3.91805013640863   14.08817354893520   11.07109237567352
H         4.54720638293985   13.41187601185645    9.55938993668940
C         4.74289693881442   12.23362494493265   13.64736705351805
H         3.84620387854673   11.94333104497524   14.19255547314915
H         4.75711422116477   13.31870702068577   13.57912035422415
H         5.61433398858658   11.92782646672283   14.22410662912321
C         4.47004428494078   10.09644154257990   12.32215766782859
H         3.51801434550900    9.92552137337448   12.82337911449142
H         5.23751053241946    9.55689761214528   12.87592919911352
H         4.38602637194942    9.68550763194929   11.31689496547702
C        13.24208898086492   10.50025621750872   11.98286955591585
H        13.88459098383764   11.34242653836183   11.72930446783773
H        13.68943976359088    9.60902422636741   11.55449734434571
H        13.23383290022406   10.40981030423915   13.06553343458872
C        11.92057929775784   10.85253690464805    9.88938452784725
H        12.59651424268154   11.65115580777225    9.59121253532519
H        10.93638900002100   11.05360855502513    9.47186709340228
H        12.28542299560985    9.91698954692588    9.47378957933786
C        10.09916833222775    7.83133102203570   14.08107696125478
H        10.58996579206016    7.33011022612575   14.91420313679990
H         9.58301656632311    7.06935015437254   13.49830149648206
H         9.36455328960426    8.52067976548011   14.48617726155249
C        12.11515820603563    7.55509375992795   12.62449932108006
H        12.95973855393751    7.38275217469395   13.28696981325906
H        12.49424676699296    7.89501849270898   11.66538065149107
H        11.62075587737133    6.59922222842477   12.46153837775480
C         8.23415211114282   13.58545137387174   14.33310622827999
C         7.85189158778012   13.10948015518457   15.58267080566189
H         8.31020085879457   12.22212354029210   15.99023628620451
C         6.91049619126935   13.78824750626281   16.33740289364692
H         6.63278008142362   13.41220008878863   17.31127538084909
C         6.33297523224658   14.95017524941836   15.85597499545832
H         5.60047363588693   15.47771636599943   16.44716455175008
C         6.71399446342594   15.43883384852435   14.61710889518778
H         6.28197312588663   16.35437749354666   14.24041319903549
C         7.65348517472916   14.76235320927727   13.86113262294993
H         7.96653727340599   15.16442848049242   12.90824715631752
C        10.25966661214601   14.12148049468321   12.48718857069046
C        10.59712540665906   15.20469751311143   13.30154728327508
H        10.32952756940349   15.19334294031986   14.34936736193969
C        11.27403352862571   16.28817625793334   12.77613002349458
H        11.52829283024105   17.12076958246571   13.41461464967316
C        11.62898564572685   16.30608569945037   11.43545845294153
H        12.15615045870155   17.15508124265759   11.02805600308492
C        11.30831726588538   15.23141445653918   10.62505640261095
H        11.58588087386270   15.23728142754652    9.58180729907941
C        10.62928670321704   14.14331994389112   11.14839497019832
H        10.38150172731012   13.30507630093189   10.51396452740130
C        10.69278644615681   12.12764032177322   14.41709195584254
C        10.39046826545346   11.09505558332911   15.30153057912772
H         9.42306147027089   10.61969483629077   15.25054161797201
C        11.31562240472683   10.65271241571798   16.22946725932353
H        11.05447142380971    9.85917514886027   16.91448526827860
C        12.57792447090945   11.22009140237888   16.27245743426855
H        13.30365935565198   10.87757197793665   16.99391985254250
C        12.90510832881971   12.21968249222049   15.37235459992033
H        13.89337759364836   12.65406282628113   15.38394327871402
C        11.97427219410516   12.67208918514439   14.45302454317367
H        12.25964391013429   13.44989851205770   13.76165406859466
C         7.13280826786088    9.79859487360750   14.50146133809943
C         6.51511454423344    9.31184265218297   15.70239039979195
H         6.88802391073936    8.31488535574796   15.94289629198760
H         5.43299573193929    9.26489580756985   15.57443835238517
H         6.73904629192565    9.98399649211626   16.53203616553985
H         9.00704525020483   11.58164275132163   10.69359169443798

