63
CSD_code = BIHYUO | q = 0 | S = 0 | Stoichiometry = C17H38ClNO3P2Ru | MND = 6
Ru       -1.59269192487127    4.64948855635751    9.98432689364630
Cl       -2.35752919241425    4.95054659836917   12.24843953309365
P        -2.00900715972542    2.38943376524509   10.22089829228153
P        -1.03234846861934    6.86311056781576    9.58849754045050
O        -3.52342940916581    1.92440587473345    9.83274628740970
O        -2.26697407882732    7.90025540064615    9.36596712372857
O         1.26395453874841    4.33989045233533   10.78022042250208
N        -3.77167709112959    5.07898865942189    9.64771854501303
H        -3.95877945709097    5.16852357357655   10.66136998091897
C        -1.88770525925622    1.63995219515264   11.93372961649105
H        -2.69960814088466    2.15695564701294   12.46831911989696
C        -1.16248371887352    1.19252936465096    9.08339661242677
H        -1.41102036672780    0.18268931477115    9.42491176414434
C         0.00270372740644    7.77950258861257   10.85540199723011
H         0.81190527067106    7.09368445913536   11.13209784447368
C        -0.14761708168488    7.22489541783913    7.99592253983549
H         0.05898880610993    8.29927935413427    7.97858898669703
C        -4.61677740118576    2.78303534835079   10.07872246922470
H        -4.63124703849586    3.11295388413988   11.12634738002874
H        -5.50886722700728    2.17495737735835    9.89402063132437
C        -4.63158971356762    4.00128513129896    9.15419039857342
H        -4.29755672539527    3.69827578220736    8.15549953693454
H        -5.67266923480533    4.35607067010945    9.08611011394527
C        -3.56585467984146    7.55286314271261    9.80553124700626
H        -4.17820314872028    8.44136278090610    9.61910503173428
H        -3.57110379282862    7.34191367684998   10.88243343205179
C        -4.15142447462406    6.35981843209380    9.04691334990962
H        -5.24895372891849    6.46063313115077    9.05653511720885
H        -3.80746269765039    6.38847176310190    8.00745137467733
C        -0.58433501488993    1.96900252780670   12.64807918385958
H        -0.65025237045678    1.66882017524809   13.69313998205816
H        -0.38982060774832    3.03932458989980   12.61598131380244
H         0.25986568534854    1.45151459332546   12.19825264914961
C        -2.17643572393659    0.14314517674747   11.94738279668724
H        -2.40419804859301   -0.17807141062130   12.96279676262758
H        -1.31198431211911   -0.42158786503062   11.60457691310366
H        -3.02929241319642   -0.09423397058865   11.31354504753059
C        -1.68479678203860    1.37842877660462    7.66352149846272
H        -1.13135911904428    0.74192274671674    6.97538586079102
H        -1.55485724752940    2.41578286043339    7.35781406478138
H        -2.73910824203947    1.12164839458494    7.60181118693619
C         0.34331359641329    1.41079944581763    9.12552394763981
H         0.84676280126837    0.71270046673199    8.45823978485662
H         0.74011805053358    1.27219844785766   10.12813735179442
H         0.57178220526992    2.42694373005212    8.80390296279002
C        -0.86416215212711    8.04103893304864   12.08510882142099
H        -0.25586291688507    8.42815427505631   12.90110893162443
H        -1.34453260536217    7.12743769856711   12.42913066934292
H        -1.63285788342546    8.77766816037107   11.85328468029238
C         0.58584559139491    9.09531585775868   10.34944907119378
H         0.99915495996642    9.65075510352938   11.19053684635928
H        -0.19437601462974    9.70300641398753    9.89382877297817
H         1.38516852587577    8.93932340597109    9.62959782805912
C         1.14866557775816    6.42825475336870    7.95667194195413
H         1.70605333595506    6.64646725598312    7.04706879219172
H         0.91887920906801    5.36286644096324    7.97949230302312
H         1.78010448060485    6.65783459011527    8.81306858851347
C        -1.03553072749462    6.88973423488266    6.80441779319859
H        -0.48455954840059    7.02822214019496    5.87578356425869
H        -1.90988968880299    7.53704516121649    6.78476802155098
H        -1.36007711874623    5.85146253404751    6.86254619762240
C         0.16131618582385    4.40957157238452   10.44498527585975
H        -1.39221279844302    4.39282987289930    8.49574741086900

