47
CSD_code = BIJBAZ | q = 0 | S = 0 | Stoichiometry = C18H22Cl2N4Ni | MND = 4
C        -6.11482399346053   -0.48855267600723    1.38080407184498
H        -5.64777886486191   -1.42902440359980    1.09187596282645
H        -6.87128986979801   -0.23078595533110    0.64513386917484
H        -6.60158196758224   -0.63027744488053    2.34521117068461
C        -5.11205619073495    0.60177188732839    1.45677165064252
C        -5.04692622135396    1.78053012663003    0.74255089473285
H        -5.71981949958943    2.10927962825784   -0.02222968468616
C        -3.92682674675325    2.46392631550478    1.22822552593527
C        -3.38975934118194    3.79232036983737    0.84686985864342
H        -2.75457601665896    4.16390624319338    1.65393008984610
H        -4.19775715291818    4.49657171043231    0.66412270954706
H        -2.78180423245639    3.70934397289754   -0.05335739824420
C        -3.78310672823115   -0.34464546742229    3.37145361212296
H        -4.66522632682516   -0.40482588198448    4.01751197150604
H        -2.96934639919860    0.09360597179034    3.96393152917750
C        -3.42644398453112   -1.73109165640915    2.89120530628133
C        -4.37344402016294   -2.74044020451571    3.03581819803298
H        -5.31201076457637   -2.51512034527365    3.52064934610444
C        -4.14253259864345   -4.02434188694872    2.57877572289178
H        -4.89581294242044   -4.78700592747758    2.70424490842084
C        -2.94621928074697   -4.31595601166550    1.94906962714876
H        -2.75730637983835   -5.30616571996049    1.56352625676477
C        -1.98392173526197   -3.33080660306427    1.83036837743500
H        -1.04685921649054   -3.56564442134863    1.34710238493996
C        -2.19180217904132   -2.04282726079953    2.31452152439997
C        -1.06625517933349   -1.04407074868677    2.19115549481829
H        -0.31581664262606   -1.43386925773825    1.49563718501378
H        -1.42397266258513   -0.08756178351900    1.78865143997365
C         0.58699560718773   -2.98484682248530    3.89109475528439
H         0.99999700748951   -3.11114990756362    2.89073463298274
H        -0.34889547435506   -3.53934991359404    3.94704350122990
H         1.28619251860010   -3.40188486915324    4.61024766119407
C         0.37169289825113   -1.54797973471359    4.19047460596652
C         0.89443082263264   -0.77588817471245    5.20721079238317
H         1.55447708137007   -1.09562547173166    5.98692257221329
C         0.39288406517642    0.51540270383177    5.00514706493213
C         0.64154213296595    1.75171642827030    5.78560334696594
H         0.37602979642089    2.61806231586531    5.17852137609230
H         1.68701509917752    1.81817633358522    6.07783355959006
H         0.02343800014780    1.76252772811496    6.68274094060646
N        -3.35070646719533    1.72968084360798    2.16943263392177
N        -4.06410256080863    0.59772706809012    2.30866895097082
N        -0.40923554666826   -0.73806870449692    3.44345557468007
N        -0.39210511262903    0.51336651852990    3.93729296377845
Cl       -2.59083152619133    2.44321722734368    4.93289775411284
Cl       -0.46607605187730    2.22288317017420    1.44156182623639
Ni       -1.61906515182489    2.03229069178828    3.15208388090391

