13
CSD_code = BIJDAZ | q = 0 | S = 0 | Stoichiometry = C6ClF5Hg | MND = 2
Hg        4.39634557176670    4.64901640275179    0.87050195047469
Cl        4.48852853808896    6.67759414244122    1.89532217684201
C         4.29559294777542    2.67053051916177   -0.16514800141657
C         3.23104083557077    1.80102362406441    0.03449370041016
C         3.14771575305170    0.56843518168700   -0.60904260459051
C         4.16215577592359    0.18704587237919   -1.48395782626802
C         5.24337656094918    1.03727314662928   -1.70381342021278
C         5.29214515367191    2.26207390933550   -1.04225370667769
F         2.25181128297196    2.16431508403417    0.87565483272269
F         2.11172084908287   -0.24162327197582   -0.39546106511317
F         4.09862586037264   -0.98591285823872   -2.10818241646452
F         6.21609933773098    0.67642025860726   -2.53970887211259
F         6.33474153304343    3.07770798912293   -1.25710474759367

