82
CSD_code = BIJHEI | q = 0 | S = 0 | Stoichiometry = C33H43NO4Ti | MND = 5
Ti        6.06446649075809    6.79258985127834    8.37595557148608
O         6.22504148719665    6.44813739426813   10.03874019857827
O         5.36754845227408    5.28488362153142    7.74866008670497
O         5.23508055043510    8.34705215978895    8.31016279516088
O         7.79587660089395    6.90515914920256    7.97791356740771
N         5.99688307882247    7.21501075806398    6.09764666290386
C         4.87965644202350    5.10548389274198    6.47459362884504
C         5.70791120168714    5.93421459924788    5.46885263381932
C         4.98039414904707    9.11114516635927    7.19509106126344
C         4.93625414407708    8.19909660886268    5.94900907410829
C         8.31856923378696    6.98685506989759    6.70942991763264
C         7.32510865227657    7.72337771607156    5.78450050342944
C         3.93013408567803    5.20013427159388   10.72502410272807
C         5.97386323506343    6.46684219806792   11.33654933547606
C         6.81449825511821    7.10215039205387   12.27299546319775
C         6.45974085112901    7.05181004990049   13.61540571162912
C         5.31867776400159    6.40898927360682   14.07575213825664
C         4.49568424019503    5.79891183732474   13.13554279663917
C         4.80833512588790    5.81883533741408   11.79259469120011
C         2.92737059677943    4.23549404960214   11.30833598464076
C         1.67676782086183    4.66725943358443   11.73614029089932
C         0.78101746725544    3.77767227816298   12.30256320196553
C         1.12314192403220    2.44440768767193   12.45254900685086
C         2.36744989156562    2.00606635209586   12.03239526566993
C         3.26173324819232    2.89613393856040   11.46466771599880
C         3.23872793935870    6.26335435557762    9.89145802251178
C         3.20029148538898    7.60361101332007   10.26065027274790
C         2.49226663584860    8.52127255065806    9.50062013870551
C         1.81975305878263    8.11711557381636    8.36101414312160
C         1.84791847136692    6.78251370078539    7.98804890443231
C         2.54478947375305    5.86340616195331    8.75170904600340
C         8.06489729239543    7.82907762159497   11.79138860200271
C         8.97349888234479    6.83584415626034   11.05219820541370
C         7.64921361584746    8.96577536480229   10.84300382873135
C         8.87441840379801    8.44473560153532   12.93975921765892
C         4.93164603116659    6.34988117886517   15.54628962058335
C         5.93313184211680    7.06715097886670   16.45564748617322
H         6.00356139022228    8.12274883777142   16.20420714678176
H         6.91972235171610    6.61594768053901   16.38250767210418
H         5.60388301064708    6.98959542993281   17.49026715949566
C         3.55953942439188    7.01379529248270   15.73021206608101
H         3.59710684709728    8.04943131120596   15.39895420490537
H         3.26966978248060    6.99637638686473   16.77912200289611
H         2.79367323861857    6.49996295882547   15.15623055426119
C         4.85720561113218    4.88014610695516   15.98347501252930
H         5.82189295476471    4.39828831599918   15.84005760213792
H         4.11616494172332    4.33435057767024   15.40617762969140
H         4.58924512815350    4.81250697203118   17.03618092429468
H         4.92500638373152    4.03640911906753    6.19575987636564
H         3.81996234917736    5.42019718415159    6.42220743456085
H         5.17828409428444    6.05133041077065    4.50996203661857
H         6.65171757727591    5.41341916438229    5.28650433064335
H         4.01312178090537    9.63453642326995    7.30139112719190
H         5.76647772955822    9.88439355644012    7.07617852437899
H         5.03028351633442    8.78037074732400    5.01635515324189
H         3.97658741607675    7.67366911016462    5.95033397918315
H         8.52353695937112    5.97261946097231    6.31200508504061
H         9.27837574881582    7.53438447295383    6.72863649542320
H         7.35876263369313    8.78874998539261    6.02845917760124
H         7.58282493236791    7.59178836245198    4.72086744116913
H         4.59709698611663    4.64755023336558   10.04129400558331
H         7.10062103526452    7.53522488193407   14.32970716047330
H         3.59341658451804    5.29636248001596   13.44842583651173
H         1.40758875197050    5.70780785561184   11.62437045304078
H        -0.18742055987490    4.12696848225645   12.63114927512672
H         0.42369211862001    1.75055370235779   12.89570725232382
H         2.64139264352696    0.96716233882754   12.14768509069688
H         4.23373325495906    2.55218837384846   11.14041716904300
H         3.70400406155848    7.93152126812849   11.15976853317733
H         2.46263363678972    9.55768796852791    9.80612203445689
H         1.26573977309974    8.83372273706897    7.77019017305735
H         1.30817202816104    6.45691768352648    7.10810432906978
H         2.53382021389695    4.81526429535441    8.48255492393129
H         8.48727625671226    6.46807842882035   10.14710697311106
H         9.90458793532314    7.32379024445996   10.76839802116876
H         9.20853734121662    5.99173346739171   11.69894368749997
H         7.11224721562842    8.57486568191571    9.97156072799045
H         7.00411540009880    9.67049046783614   11.36705163928831
H         8.53412089359207    9.49847958966302   10.49681865544478
H         9.21608922568420    7.68044656298749   13.63386990013805
H         8.29224547113186    9.18628631944012   13.48200168675950
H         9.75202580829863    8.94272772383943   12.53194094113573

