107
CSD_code = BIJHIM | q = 0 | S = 0 | Stoichiometry = C41H59NO5Ti | MND = 5
Ti       13.43355082822243   10.59974441556461    8.71589177569375
O        12.21462681871984    9.41045734970707    9.15563344696968
O        12.80504987099906   12.25020572356855    8.43853260115269
O        14.71029180015853   10.20687833610137    7.56576192997089
O        14.35708565336063   10.78675313864566   10.14919238692357
O        11.90293645214908   14.25722317358232   10.05357969387588
N        12.24116741862349   10.29500139619036    6.69379650347721
C        11.05897428445309    9.13523920500917    8.45191545947250
C        11.37760873247294    9.15000326913147    6.94106836764745
C        12.41186573646355   12.65653430893544    7.17335826118370
C        11.53575670901428   11.56006325794805    6.53925023843110
C        14.49899639770837    9.48938963087716    6.41032963751898
C        13.26339508970690   10.06163876070238    5.68145330223951
C        12.47854900595136   12.02310949538650   11.74573666721683
C        14.30714443229861   10.34873266998872   11.40500467646454
C        15.14430838908242    9.31505541815572   11.87922876413927
C        15.05139710732979    8.96378843859908   13.21671022207053
C        14.15524421096535    9.55244461323864   14.10498236185346
C        13.30895047526272   10.52932771683699   13.60749249933587
C        13.38740961694014   10.93947873448326   12.28622145093160
C        11.07598695315223   11.81462052597779   12.27229840357889
C        10.40135537855843   10.66523790725813   11.87069064082931
C         9.12672194778207   10.40065486070195   12.33348277607530
C         8.50805359453812   11.28339403089286   13.20552469136759
C         9.17399724920634   12.42641078886465   13.60932941599611
C        10.45331383877222   12.69154222516974   13.14783677435812
C        13.00537846539631   13.41928720144367   12.01802519245756
C        12.66243435729453   14.47739684721874   11.17012712837699
C        13.06626633206447   15.78624381751804   11.48236123492018
C        13.82513745208834   15.97883852476173   12.62577327333534
C        14.20852463350335   14.93885986880990   13.46489950584629
C        13.77987300916882   13.66384683239343   13.14214512196133
C        16.06714183976095    8.57642913149083   10.91414875283323
C        16.99091020272392    7.57706856005084   11.62245214191486
C        16.95431059492607    9.56668538725874   10.14500452179647
C        15.18274352743076    7.79184973150297    9.92983376664744
C        14.13858716447614    9.10766732504088   15.56003997675182
C        15.51287913277537    9.38825301915005   16.18440182906661
H        15.73868123241215   10.45102839570209   16.12955590236447
H        16.29963116005203    8.84616461468948   15.66740306573406
H        15.52045742911614    9.08697185726682   17.23009497596533
C        13.83182293993766    7.60540681474826   15.63021661207784
H        14.59484042951956    7.02097946954771   15.12401794639840
H        12.87378288488879    7.39802109300558   15.15851557734319
H        13.78552494287760    7.27864540832192   16.66726664772341
C        13.08165370303527    9.84713624204539   16.38507719474210
H        13.27171950909446   10.91761413539057   16.39333606755854
H        13.11035535153682    9.49312296989489   17.41396475447982
H        12.08332941849024    9.66691876179461   15.99345006401675
C        12.67797473910560   16.95178066888279   10.57908643893684
C        13.20311557612948   18.30035313915044   11.08367851845260
C        13.26195606683648   16.72151877602280    9.17787923760404
C        11.14783161321029   17.04527138542687   10.50784387196352
C        15.06554916481763   15.23411846740482   14.68729389080949
C        15.37856429792299   13.97481232736418   15.50081853890238
C        16.39505262311953   15.84920104894478   14.22886740336174
C        14.32525667995264   16.22056885845746   15.60131608149274
H        10.66430522812285    8.14533159724366    8.74156717956857
H        10.28349255304236    9.89201628011377    8.68148618069351
H        10.45724978015689    9.17753766766598    6.33680678430910
H        11.93341506719927    8.23771486023359    6.70180374411025
H        13.30181629107240   12.84520276716141    6.54454044308495
H        11.83678674376123   13.59507447316618    7.24312138654212
H        11.30758961708827   11.78667487880561    5.48596628874648
H        10.59870388150885   11.51193423802196    7.10203151781560
H        14.33088570526284    8.41919161537741    6.64732291636221
H        15.38367979445194    9.55547614844270    5.75355027944710
H        12.91452003360618    9.38976970725935    4.88333317816884
H        13.54465935993045   11.01887934881942    5.23447470847931
H        12.43564236062077   11.85180265271301   10.65602269209639
H        15.69926907997048    8.19083855902681   13.59285924445209
H        12.56477359634063   10.99370140335828   14.23422286690607
H        10.90060214122021    9.97843565384933   11.19613743727864
H         8.61090683174556    9.50506054126395   12.01634664232857
H         7.51072993393319   11.07915560059413   13.56745838034944
H         8.69691700721471   13.11700232494387   14.28998172201565
H        10.96785406152359   13.58572889656347   13.46757285752382
H        14.14340436553727   16.97615867554377   12.87429113700918
H        14.03978785800504   12.82533911451952   13.76369230138577
H        16.42382785085023    6.79316847489981   12.11881138345420
H        17.62237000541379    8.07911338051457   12.35167439243900
H        17.63775371794493    7.10240743574000   10.88703002761708
H        17.68157282309191    9.02272172742182    9.54394243458453
H        17.49225255528413   10.20589430522300   10.84281231534252
H        16.35761457170918   10.19344847964549    9.48015126780071
H        14.59150382327982    7.05236915033958   10.46975930517392
H        14.49935537784186    8.46965157673859    9.40292923630725
H        15.80569132167739    7.27601589122116    9.19950188896645
H        14.29008419701860   18.31210872589693   11.12412450045067
H        12.80366406441773   18.53725109861770   12.06729619581040
H        12.88644397580489   19.08434695055379   10.39802834874621
H        12.86598388475389   15.81064832838979    8.74146602749830
H        13.01082780292707   17.55618647425682    8.52580456673703
H        14.34567103844258   16.63748276950808    9.23382169170002
H        10.72628841399298   16.12319748212385   10.12324559369582
H        10.73875479623432   17.22556473777314   11.50016506288335
H        10.85114465552989   17.86522250701108    9.85625734430591
H        15.99880014200459   14.23882213552197   16.35573189908680
H        14.46621109795301   13.51667341257266   15.87572646986827
H        16.23506290157401   16.78253448044036   13.69628671401904
H        16.91403610567189   15.16221899851357   13.56395102684376
H        17.03382400783385   16.05100199971995   15.08673376307038
H        14.91698707581863   16.42655275155644   16.49125482937253
H        14.13437119031335   17.16252826983419   15.09495676116984
H        13.37042700519391   15.80060809620423   15.91070959309336
H        15.92056268248584   13.24723637295961   14.90118198448385
H        12.19249715781153   13.43510690994138    9.60565730226970

