42
CSD_code = BIJKUB | q = 0 | S = 0 | Stoichiometry = C11H23Cl2N4PTi | MND = 8
Ti        7.18943599254218    1.96537258181841    0.85555070389083
Cl        8.61767505565176    3.25028021907101    1.90856944174845
Cl        8.63426273551553    1.00906503012363   -0.47354338933856
P         6.55847962988524    3.61690873945646   -1.61238688749309
N         6.34433461562298    3.17076500937186   -0.12736592379037
N         5.88648358650326    5.13569936998161   -1.82776724195429
N         8.10955228935657    3.77249002157543   -2.25857563446234
N         5.74345112449328    2.65922248680045   -2.77068584922316
C         7.09486983686065   -0.00142114825217    2.16119968080033
H         7.90926753786106   -0.69695637414582    2.32456992755698
C         6.12953891812125   -0.09282880946205    1.13322047504346
H         6.06458725686840   -0.88851305837047    0.39887454774559
C         5.17686887482818    0.93072908198687    1.33727751649907
H         4.24511857367837    1.05553881333949    0.79792443910617
C         5.57343324603882    1.67078369188055    2.47678962654432
H         5.00109427621281    2.46053598975726    2.94986496997598
C         6.74861391091896    1.07614947332648    2.99089332031511
H         7.25144517309705    1.36251324502084    3.90571082128321
C         5.62245008777848    5.98177375424783   -0.68765080405691
H         5.64105745118263    5.35347691057130    0.20567310101904
H         4.63659131308268    6.44641746012958   -0.78392181995812
H         6.37109810752320    6.77511544436667   -0.58650529209521
C         6.08874102230099    5.81596230987489   -3.08563715411919
H         6.31721591300645    5.07303604322824   -3.84722651054785
H         6.91196078752370    6.53683972437225   -3.03338832725281
H         5.17842931430066    6.35316300505237   -3.36749893635562
C         8.68447904710969    3.03692541105481   -3.36100272004435
H         7.89506470206851    2.74206190249052   -4.04753697718518
H         9.23820671983640    2.15222893212718   -3.02667002799768
H         9.37830484677315    3.69776718101581   -3.88923728587810
C         9.07893596163995    4.29053640704204   -1.31427189798196
H         8.54493698378315    4.78758815966632   -0.49773321645129
H         9.72655513455715    5.01663881787782   -1.81471875966009
H         9.70667318413441    3.49656403933333   -0.88601362214113
C         4.30259186396890    2.85721772916017   -2.73300558618046
H         4.07906247238620    3.91710095726326   -2.81740836980546
H         3.85913344840211    2.47686149787925   -1.80361327253501
H         3.85637371567255    2.32909504597605   -3.57773692085277
C         6.05729494862809    1.24526170396295   -2.63837666208077
H         7.13516334806550    1.09718471638927   -2.60723447415533
H         5.64526522913910    0.71245659448583   -3.49832339234380
H         5.62930176308538    0.81859188915116   -1.71448161558703

