75
CSD_code = BIJLIQ | q = 0 | S = 0 | Stoichiometry = C22H45Cl2N4PTi | MND = 8
Ti        4.41601291610772    3.17968580450827    1.98039721676713
Cl        3.84139421380503    3.55812020915991   -0.11468320628220
Cl        3.05610736171924    1.49015699284448    2.33386239752309
P         2.62510496108789    5.61484661758298    3.21152727274516
N         3.62254648441377    4.47138520189653    2.87792058113570
N         1.07777466362904    5.39838626057179    2.58291134946539
N         3.27457966282135    7.09798069648174    2.72297943121201
N         2.33327202132808    5.89030623360280    4.86644773885968
C         6.44673505375032    3.90984023728712    2.78341876884810
C         6.09139240823967    2.68735513382413    3.42552376220884
C         6.10130169106755    1.65213845295208    2.44530601343771
C         6.40451869244799    2.24054344531060    1.19704444802565
C         6.60974980426155    3.63572147147363    1.39814060584723
C         6.72851086196492    5.20045192031294    3.49946160107697
H         7.40887892503541    5.02224624480945    4.33378651648519
H         5.80677221439535    5.63660130924859    3.89210288962581
H         7.19183935200604    5.92294769361904    2.83072843655315
C         5.90586699520308    2.49528925652277    4.90331195152678
H         6.82929271982109    2.13017925867904    5.36148603167567
H         5.11739417674238    1.76761243032331    5.10317711923189
H         5.63451644106782    3.43832284187170    5.37634161046429
C         5.96437957577776    0.18644084856893    2.73362446120831
H         6.94026626095151   -0.23397437759145    2.99194102446812
H         5.58002585291080   -0.35358418578605    1.86914888431785
H         5.28601299596744    0.01303110441781    3.56857614542038
C         6.59357252081555    1.52666471280099   -0.10859807351487
H         7.65391302516424    1.32069396629524   -0.27808016255224
H         6.23026215054589    2.13369224452072   -0.93854090995996
H         6.05867584312065    0.57727518277521   -0.11833500272270
C         7.06880663711105    4.58575163651503    0.32940057680094
H         8.06427350405098    4.30279691217488   -0.02091043616551
H         7.11205482818123    5.60833125942967    0.70073410187386
H         6.39127833098555    4.56314700587989   -0.52644156440150
C         0.01884221604235    3.14376281151434    2.45369947060521
H        -0.14953999927997    2.32352827416528    1.76076546737920
H        -0.94617464470870    3.49103081061815    2.81857128225630
H         0.60590022986921    2.76759623313016    3.28832032334043
C         0.78554443067292    4.25409922192504    1.73893066881389
H         1.74691864637146    3.84864948262924    1.40032476300577
H         0.22227518802964    4.58652180358140    0.86013485732511
C        -0.48817771785934    7.12573262624723    1.71749933289453
H        -1.22269435338183    7.85500798340772    2.05057234576475
H        -0.94596536513384    6.50633742765260    0.95074692887136
H         0.35376269618820    7.64981830624684    1.27517675127576
C        -0.02764913309706    6.27821009400533    2.90377818886981
H         0.29524509607491    6.93039215313285    3.71684544806885
H        -0.87962454344968    5.68948405506818    3.26555236965648
C         3.20921418200382    7.09390022475847    0.22195190934839
H         3.85440421933748    6.99179897331559   -0.64682210595654
H         2.66594194792693    8.03357893236318    0.13949887087451
H         2.50333706266855    6.26504397216063    0.22271372426612
C         4.04985716319273    7.04008691789856    1.49468389572296
H         4.58565055440471    6.07995281166601    1.51070431856444
H         4.78104126484020    7.85412446498406    1.50136885800190
C         3.72485862039835    9.42075714092731    3.46433418825550
H         3.22184110243171   10.30495184607516    3.84846132786123
H         4.32794691441636    9.71955904692557    2.61119377108580
H         4.38455793429033    9.03330184711337    4.23601793748124
C         2.68138727628055    8.37507605379274    3.06848462934957
H         2.01908172344943    8.19846383632716    3.91643355523195
H         2.08081180841776    8.77640446492586    2.24296833146834
C         3.05493505694730    7.37251304012709    6.70578376778006
H         3.93858211446303    7.76647715965848    7.20176269465393
H         2.42259218018083    6.90576722578585    7.45645918301793
H         2.50801469034880    8.19918068692107    6.26037704843943
C         3.47170020246587    6.36608032416970    5.63534278782718
H         4.15692511090387    6.84473366436980    4.93235650994378
H         4.00748805452584    5.53498379704140    6.10868508571275
C         2.25832479352821    3.52581203939684    5.72283661551756
H         1.54454396259909    2.77234165872495    6.04733144528582
H         3.03666969828350    3.60164177371749    6.47877324687457
H         2.71017819715949    3.20934995601376    4.77864259388625
C         1.53999911627367    4.86088481770202    5.52093986075539
H         1.20127442391306    5.25463015342119    6.48543547129714
H         0.65989473151586    4.68954786349381    4.89965069812304

