111
CSD_code = BIJMEN | q = 0 | S = 0 | Stoichiometry = C50H54Cl2Si4Zr | MND = 12
Zr        0.35331537010959   12.52825192086217    4.80135076447186
Cl       -0.39933466373331   13.04602409111725    6.95469302289367
Cl        1.66758461386374   14.48114931464199    4.75906074948386
Si       -0.91911868178713   11.15521114185997    0.97825850205167
Si       -1.47705736644715   15.80027532582456    4.29577731892305
Si        3.40537217505906   11.75554003045346    2.58787581980754
Si       -0.21923413224083    8.82279377788933    6.16765093102380
C        -0.79679504709399   12.03948973024637    2.63625399336878
C        -1.75891214348970   11.70113109782131    3.66495279946839
C        -2.08805587675819   12.89644202808330    4.39776126259032
C        -1.31477158994228   13.97947930872756    3.85565639990884
C        -0.58830296493985   13.44278770825752    2.76625982638945
H        -0.02571516223820   14.05284626302031    2.06889556789440
C         2.34926072773730   11.34809131674260    4.08420358225944
C         1.28284486796204   10.40712102103002    4.13690611867476
H         0.91739117078263    9.85165332857659    3.28252063948335
C         0.85244512878387   10.19674938435556    5.47073215957498
C         1.74037811462626   10.96910278468930    6.30244740381716
C         2.65844778470216   11.67620612145363    5.45393134105702
C        -2.49156144221646   10.52601754225784    3.89865321500423
H        -2.29408438972686    9.63513620319277    3.32075892712263
C        -3.51785837202876   10.55108251879231    4.81175420435206
H        -4.12325556282290    9.66959238141634    4.95667032965846
C        -3.82057495686109   11.71027652791451    5.54306021500680
H        -4.63736860863638   11.68594944665365    6.24846128424417
C        -3.11360820995059   12.87291085334372    5.35874978346543
H        -3.37243600469623   13.77367501872643    5.89747055582771
C        -0.24356799214650    9.37634733487897    0.90274527628830
H         0.83806930828643    9.35010291509896    0.97763658399163
H        -0.50253300046856    8.93232026494604   -0.05333776779753
H        -0.65052165150861    8.73617982614168    1.67912597528239
C        -0.13201019946526   12.14436673282521   -0.45264397566557
H        -0.59324191446646   11.85024797090883   -1.39023447627939
H         0.92946330388321   11.94068328766005   -0.53983696854906
H        -0.27035543268891   13.21535793364046   -0.34961127442786
C        -2.80941222804313   11.13863729291482    0.72147399166432
C        -3.53715832733107    9.96767313058246    0.53960700131053
H        -3.01800919309847    9.02158434073206    0.49131019086551
C        -4.91577388457450    9.99141452354940    0.42447055489613
H        -5.46149719360837    9.06876265189355    0.28592869336843
C        -5.59698743983747   11.19434233078995    0.48974006088345
H        -6.67371516987708   11.21425567728194    0.40252863989523
C        -4.89035014014944   12.37179688406102    0.66868320940524
H        -5.41309560680195   13.31604390405914    0.71983579162879
C        -3.51396827867478   12.33885514366424    0.78480686191948
H        -2.97192883723302   13.26254744139243    0.93194769884389
C        -0.39207729015337   16.82028123829213    3.09440464670812
H        -0.49634563701673   17.87915005185193    3.30607450454756
H         0.65758610612372   16.56422518606629    3.19627548984886
H        -0.68460941160184   16.66835743212989    2.05942026669252
C        -1.05844494688765   16.20283753568616    6.11340410501810
H        -1.20005006981499   17.25993706195268    6.31676381553861
H        -0.02403674386587   15.95827291331795    6.34090623384919
H        -1.68532838836232   15.64705008625147    6.80539502215980
C        -3.29418438721620   16.27416649072584    3.96346121030733
C        -4.20286141869569   15.40592367294992    3.36559018792570
H        -3.88799556791119   14.41136042201215    3.08514402465760
C        -5.51091486281338   15.78953066875957    3.12877168052208
H        -6.20103998190548   15.09471496073710    2.67112926086607
C        -5.93816433828207   17.05798174895303    3.48058969687610
H        -6.95946177720591   17.35953680196541    3.29715953725844
C        -5.04690027825565   17.93903246948492    4.06985871771497
H        -5.37186508053286   18.93228667612831    4.34569647175636
C        -3.74262604324818   17.54595676604620    4.30609445437047
H        -3.05452635679673   18.23964413176283    4.76641935073718
C         3.64034224699099   12.50015704487003    6.03093814734935
H         4.33075254938221   13.04666475560817    5.40619510350572
C         3.70901009007110   12.59882835511324    7.39943116730158
H         4.46170187829141   13.22599422268694    7.85334721877765
C         2.81674737942025   11.90066004160198    8.22756043015348
H         2.90387587148712   12.00679793018536    9.29848720073579
C         1.83804734302601   11.09598012766310    7.69791433129366
H         1.14506963527749   10.57330340271837    8.34160101456546
C         5.25368207837805   11.97305807995899    3.03799402256462
H         5.46674595355755   12.98308292704982    3.37303560480718
H         5.56480531960676   11.28750234420407    3.82021671494231
H         5.87538757278706   11.78148630675705    2.16816729477489
C         2.81204556827778   13.32560600238327    1.67766487061680
H         2.63061248366603   14.13157057424448    2.38494290119098
H         3.56543974960225   13.67140508133102    0.97626634666530
H         1.89862134965117   13.14934480628188    1.11953401281730
C         3.32786973934610   10.23810354509865    1.43871173262335
C         3.34084123301821    8.94618194280096    1.95931948372907
H         3.36485618924840    8.81096956648738    3.03126713580216
C         3.32606882318047    7.83731286379634    1.13271272940125
H         3.33398008470601    6.84445210111605    1.55959379997863
C         3.30309388384566    7.99969426105073   -0.24245176914788
H         3.28751633560543    7.13655627810754   -0.89178608967760
C         3.30780865376927    9.27545739032352   -0.78034387092980
H         3.29975482647615    9.40941379730016   -1.85255344202487
C         3.32422533347264   10.37818062444443    0.05511786127664
H         3.33925414150390   11.36880308499628   -0.37440027539797
C        -1.58433038443822    9.57903518488391    7.26899855702891
H        -2.55551979337180    9.12761775477706    7.10234750586440
H        -1.34397569803492    9.43770634982731    8.31841170266922
H        -1.68487803438682   10.65034240337632    7.09898191643219
C         0.87370047894386    7.66024370658788    7.23468725261980
H         1.39011809453190    8.19465481017907    8.02528613153731
H         0.26913104621483    6.88587666968131    7.69818448113518
H         1.62824956222245    7.16466099985738    6.63093687701319
C        -0.82917711613725    7.69664389321924    4.75985954475750
C         0.07433587568399    7.21046225513347    3.81772691668378
H         1.10993240787927    7.51286460407578    3.86979038771518
C        -0.32424759406388    6.34300496651204    2.81619967285381
H         0.39514560616614    5.98859927129847    2.09195555754209
C        -1.64507418067663    5.93462600942377    2.73947929073970
H        -1.96209572132499    5.26149723048492    1.95629235727878
C        -2.55441972635792    6.38853508615474    3.67978485198015
H        -3.58450097239567    6.06485969865571    3.63473787848348
C        -2.14449260404740    7.25377359451846    4.67843867857533
H        -2.86161198574387    7.59127596321840    5.41071529855734

