49
CSD_code = BIJPER | q = 0 | S = 0 | Stoichiometry = C16H20Cl2N8O2Zn | MND = 4
Zn       -0.00006240573923    3.65905349724456    5.99321324802534
Cl        1.17826383500267    4.44652219616587    7.69469787923831
N         1.37139283262217    2.37257435788247    4.99463601448910
N         2.32761930006305   -0.01646764013187    1.07627765981919
N         2.11723093042571   -0.49203779031187   -0.15109146522397
H         1.43499309387403   -0.08506961197810   -0.78626558644064
N         3.72893347399890   -2.08199880063710    0.22709830314431
H         4.24391553695939   -2.90562215555309   -0.02260187384497
H         3.76056843468117   -1.71305663604793    1.16119617523800
O         2.62988154529663   -1.98415421484224   -1.76591303389978
C         1.09728397021168    2.01472396170706    3.74724186738650
H         0.11019065976265    2.28243909847793    3.39961218660847
C         2.00685845474658    1.34471239914763    2.93026662180890
C         3.25230935084182    1.03124928187450    3.48281158046691
H         3.98369734050955    0.51968678833061    2.87691608228705
C         3.52814514210895    1.40124420988635    4.78492052599584
H         4.48340518199784    1.18144553681280    5.23468778494667
C         2.56124013595940    2.08041955324220    5.50911650679793
H         2.73473740778244    2.41498830919837    6.52175264544753
C         1.67237262179826    0.97575330973538    1.55388899392894
C         0.61466210774769    1.74836048647254    0.81752585366985
H         0.91417886579676    1.90470629716396   -0.21897486300405
H         0.45456340242732    2.72033752398606    1.27250878138149
H        -0.32991440867163    1.20312201364240    0.82013168362141
C         2.83165089508914   -1.57874174571261   -0.64590968233816
Cl       -1.17845969194639    4.44628489404502    4.29168293186070
N        -1.37143603419988    2.37253918290665    6.99187244010724
N        -2.32741706884902   -0.01669137532697   10.91013084121174
N        -2.11708050000475   -0.49210097536357   12.13758118174642
H        -1.43547586061015   -0.08449192816252   12.77311056925550
N        -3.72869882043511   -2.08206856489679   11.75951998735371
H        -4.24470028711403   -2.90517149895202   12.00971258571171
H        -3.76018371597519   -1.71342568173581   10.82528124598555
O        -2.63014667294148   -1.98372965311581   13.75290037149185
C        -1.09733081433218    2.01480183027358    8.23932207907617
H        -0.10998470239448    2.28176654683322    8.58661801301310
C        -2.00686236036253    1.34466548272846    9.05624707111265
C        -3.25228632657438    1.03105636598955    8.50366489966564
H        -3.98372587937935    0.51972905470971    9.10968525562166
C        -3.52818219286787    1.40112350530605    7.20159972579508
H        -4.48362949210931    1.18187529462416    6.75209612759593
C        -2.56127821912458    2.08026309748394    6.47736486055685
H        -2.73504083730253    2.41549004790593    5.46502756085365
C        -1.67239121958384    0.97570462021122   10.43262530942164
C        -0.61455718936677    1.74822922376078   11.16898809743929
H        -0.91428704188905    1.90486000033182   12.20548097042017
H        -0.45434919068578    2.72013583136869   10.71376529612085
H         0.33005000856423    1.20280786337781   11.16659200205157
C        -2.83066359583221   -1.57944339009541   12.63208668707071

