75
CSD_code = BIJPEP | q = 1 | S = 0 | Stoichiometry = C26H46P2Rh(1+) | MND = 8
Rh       10.81025616045485    9.71050096064080   11.12420407276854
P         9.39809258826050    8.43987246685746    9.90196927517316
P         9.22694878500098   11.11149526078181   10.36583098494230
C        13.35205548535509    9.25190985023003   11.15322572595655
C        13.15153433391117   10.62249297698522   11.33838625527052
H        13.71067555191063   11.33518163602945   10.74632854360323
C        12.27252907143327   11.08349671706312   12.33774680807241
H        12.18035902455633   12.15114725887776   12.49996385984864
C        11.70959559464876   10.19146295218483   13.26985575459010
H        11.19538564827648   10.56774207384929   14.14459225401081
C        11.87863474333887    8.81669788187814   13.07602114611340
H        11.48759838604657    8.10746120357640   13.79439477886718
C        12.61849292487646    8.36008416183802   11.97040328881851
H        12.78119419233482    7.29457364361550   11.85290635242146
C        14.37745455832191    8.75017581894292   10.18597122538063
H        15.36939661226749    8.90295516074647   10.61258783884677
H        14.33579437621166    9.29307794836378    9.24435474559489
H        14.25777831907848    7.68805195846334    9.98960418765752
C         9.95480237804327    7.54187642209803    8.35525768475735
H         9.85143994158147    6.47565163208739    8.58526214738627
C        11.43398803970528    7.84806433380933    8.13812239464436
H        11.80318799608985    7.33818943893343    7.25094099229448
H        12.01360750894401    7.51273015180803    8.99569701078007
H        11.58737651945856    8.91921982138736    8.01169461804208
C         9.13218833000565    7.85856886176247    7.11260515948511
H         9.40114397102122    7.16471990414944    6.31842540179748
H         9.33978557353282    8.86359147999309    6.75214957507472
H         8.06539206423961    7.75965916176179    7.29803876534996
C         8.28615147117838    7.23947465782092   10.78607370326957
H         7.80442339286885    7.83649457787973   11.57068276972145
C         9.15090617514073    6.17690878797926   11.45731409481601
H         8.54012443862794    5.53075644116612   12.08359436255740
H         9.90644352152072    6.65159294880127   12.08316586047934
H         9.65267870633766    5.55384267059121   10.71918672315137
C         7.21633241362789    6.62758892976509    9.89069025640943
H         6.53290700614549    6.03504960696896   10.49564969691435
H         7.65411432962181    5.96988905227068    9.14407582185610
H         6.63527542138795    7.39492855942951    9.38286841095177
C         9.70509212529213   12.43383478275424    9.16253273882661
H        10.21334017407763   13.20441095969937    9.75640432202208
C        10.71938305858416   11.84967558231923    8.17987855058559
H        11.55247087482363   11.40742001863961    8.74085525016722
H        10.24782434881727   11.05592632306885    7.59523519388325
C        11.22138492483987   12.93380798437219    7.23126122802043
H        11.74299922072374   13.70521633056215    7.80140046505278
H        11.92956065739764   12.50607557107725    6.51986825254491
C        10.04655552218657   13.56077659689835    6.48531760952435
H        10.40749032990390   14.34759549086235    5.82257474127325
H         9.56094805298591   12.80220334952200    5.86733035686166
C         9.03435931938303   14.14060238136354    7.46886506576780
H         8.19248519734237   14.57124716136067    6.92528751865727
H         9.50538771479188   14.94122611380476    8.04301524617285
C         8.52483993565588   13.06312309697483    8.42647574075803
H         7.99014314219449   12.30005809559954    7.85663651784287
H         7.82419615348131   13.50709284993527    9.13584477687157
C         8.02105055730513   11.85429910702181   11.55876697455297
H         7.12978852476813   12.18372756015639   11.01183012309113
C         7.63930240791192   10.77210007205274   12.56953316352527
H         7.11058257779973    9.96058461421603   12.06470845445681
H         8.55967872766578   10.35538894758732   13.00038588107348
C         6.75640191722389   11.33446298253437   13.67976110674366
H         5.81334999148311   11.68010331444723   13.25106690466121
H         6.52686789915109   10.54595157532234   14.39810736727434
C         7.44725175168640   12.49847207631919   14.38070401012756
H         6.79861773561500   12.90046730884773   15.15925845861973
H         8.36429924954431   12.14655400882196   14.85841568132006
C         7.78347952453215   13.58936807109462   13.37055716624345
H         8.28607521273972   14.42005318892676   13.86808681041732
H         6.86055468511206   13.97313835525970   12.93098535107306
C         8.68034783383976   13.03976477879415   12.26442201536172
H         8.89699132320859   13.83371224139184   11.54691905588619
H         9.62753403293635   12.70408384024091   12.69812698243082
C         8.26688720427885    9.83946215228015    9.40833515401591
H         7.24073735697942    9.71532826044836    9.75613584381234
H         8.25929517837308   10.03610748403518    8.33806737280594

