44
CSD_code = BIJPUH | q = 0 | S = 0 | Stoichiometry = C13H22N4PdS4 | MND = 4
C         4.82476335667861   -0.26162125355009    5.31873964129465
H         5.60618073232330    0.18413176526504    5.92976218349197
H         4.09957481743809   -0.73982326545254    5.97368077234392
H         4.32338971201729    0.52469008790404    4.75981342807482
C         5.40919558565556   -1.28722037417227    4.36886444570462
H         4.64611563093284   -1.72288423596983    3.72675487191038
H         5.93684066513248   -2.07395814543833    4.90660191051818
C         5.66223263410383    0.33819846813124    2.16395610081408
C         6.07121154787658    3.50572865207763    2.52787204279128
H         5.51171896904961    3.96789448634010    1.69029542056060
H         6.47989785743913    4.30161075682140    3.14915960410762
H         5.38675990212559    2.91230972795712    3.13971181068869
C         7.20239694887931    2.64169855412326    1.99201735395769
H         7.77325536949819    2.17132300365649    2.79416793226580
H         7.87140535448210    3.21856920082285    1.35276902020369
C         2.33553398001047    0.88697709831576    1.42300950047508
C         1.79929053860043   -0.14277663768895    2.37761670309638
H         2.21741704707683   -1.11979574073162    2.13922899549859
H         0.71673263536774   -0.19398239512016    2.32523365805667
H         2.09787486801976    0.10411214494075    3.39549895063212
C         1.46150035914719    1.64225376794579    0.66747925159377
H         0.41193810127891    1.43693064447709    0.81147871826656
C         1.75244246237003    2.65418244759833   -0.26680075880317
C         0.60181990494889    3.36407095188536   -0.92467682065466
H         0.68091483691842    4.43397550414387   -0.73830495117758
H        -0.35036705351414    3.00013094427061   -0.55281617011496
H         0.64971704159063    3.21986640482502   -2.00264495862056
C         4.23130066419358    4.38039054682182   -1.90739559058469
C         2.64534517558985    5.96601630760169   -3.54041643819554
H         2.08690403027745    6.02036931608281   -2.60817563581581
H         2.65480934481315    6.94001315335208   -4.02817384583278
C         2.10011768877429    4.89016935492670   -4.45770324516524
H         2.67898201362336    4.84343290296578   -5.37705912147527
H         1.06254799634590    5.10514499074168   -4.70620434610108
H         2.15015723463728    3.92256279817416   -3.96465118834400
N         4.39733340410805    0.29903416989931    2.19535789247535
N         3.66404903419836    1.03918269799627    1.34783788320425
N         3.05972084420283    4.01188262785409   -1.52862053161363
N         2.97211630997695    3.02262610086458   -0.60758676464215
S         6.66728921154450   -0.55841406360764    3.26384958989608
S         6.59272539052945    1.28946171927197    0.91619827976259
S         4.38881314479454    5.65475422367780   -3.09059718712289
S         5.72543375966172    3.73330331533138   -1.32870951942605
Pd        4.67230094729404    2.26517727467541    0.09328111199959

