86
CSD_code = BIJQUJ | q = 0 | S = 0 | Stoichiometry = C33H46FeN4Si2 | MND = 3
Fe        0.28518659026295    3.58761479465874    7.88053950443381
Si       -0.13929640130954    2.29658148291273    5.26735559741450
C        -2.32759178602716    5.53275798814652    9.07052538608553
N        -1.94600263195500    4.34687970568322    9.74355387123845
Si        0.18800113434767    5.39114228134367    5.38247642465485
N        -0.97095913938133    2.52480545310953   10.35529930250369
C        -3.00651575811505    5.42908702435399    7.85543965609812
N         1.51680235733063    2.73727903304651    9.15293288262377
C        -3.45555069853321    6.58821852526171    7.24672774471252
H        -3.99784892186250    6.52405134105616    6.31463744307396
N         0.13163424394055    3.80712180185591    6.06923016621762
C        -3.22971963907170    7.83733519928378    7.81175871086873
C        -2.54792764562260    7.91201729085158    9.01606685293592
H        -2.36599769541421    8.87758529511923    9.46603144281582
C        -2.09648836005776    6.77091648133451    9.66528234012504
C        -3.22447926179380    4.07950596049087    7.25137179638500
H        -3.85013678840126    4.14483217539119    6.36609862017333
H        -3.69682880510673    3.40693839406476    7.96628027584392
H        -2.25514949052510    3.65625939299819    6.97483621046684
C        -3.70479375907247    9.07406499104126    7.11154790184802
H        -4.74204596399270    8.96469811812841    6.80044418897164
H        -3.10613436318593    9.24752635148047    6.21742153708405
H        -3.62097990683027    9.94574337898520    7.75538466456434
C        -1.39095288037626    6.86885780822527   10.98353071119772
H        -0.96968669538289    7.86202586012814   11.11755718387453
H        -0.59242424816942    6.13344145779338   11.05108042140311
H        -2.08866350347305    6.68242585901050   11.80129762989180
C        -0.88736704900515    3.52905251228538    9.45253432716767
C        -2.67720301913298    3.83435824337461   10.77948613053894
H        -3.56632692910026    4.30895060537329   11.14122591249726
C        -2.06591263946306    2.68477810561387   11.16161875265407
H        -2.31321363544682    1.99207430073433   11.93954619951837
C        -0.02150055024673    1.53114289972103   10.50872788015708
H        -0.27897889904442    0.71616852098907   11.16066679198323
C         1.22700549432210    1.65535189024347    9.95490702663902
C         2.25248788469551    0.69839338534109   10.23831255531957
H         1.98273667293746   -0.17834430908164   10.80611799143907
C         3.52650928345917    0.91979739892172    9.82327108641812
H         4.31408157317798    0.21300259293881   10.04194629719100
C         3.82369776745478    2.10273955435105    9.12477807278959
H         4.83648856563437    2.34413415775797    8.84823552953199
C         2.79431534725632    2.96848731753764    8.81448789879476
C         3.13313827323615    4.25444614320536    8.15281063557213
C         3.80746450267224    4.26510903177486    6.92884005696175
C         4.31235058247167    5.46129455466582    6.44022935935795
H         4.86160306190090    5.46016992373273    5.50790041635970
C         4.14754553323234    6.65441917463546    7.12714666718281
C         3.45442937799630    6.63246666539488    8.32854555382808
H         3.31741223517209    7.55485306254320    8.87616765243011
C         2.95339691093065    5.45292191810375    8.85521443082769
C         3.99245784824230    3.00853103576071    6.13180350579842
H         3.17712425851511    2.31472692848989    6.32035543802616
H         4.92939437929841    2.51655137409331    6.39339729663852
H         4.02427114452577    3.24118056051962    5.06939646267084
C         4.67714179029734    7.93833774595544    6.56320625719022
H         4.82014272174259    8.67899980858646    7.34647365707206
H         3.97042598618714    8.34316983007435    5.83744211747745
H         5.62425274574968    7.77654446129219    6.05282561242043
C         2.26342691896317    5.45741574879995   10.18630685537070
H         2.78549484392881    4.80466380621674   10.88511407706879
H         1.24766487751093    5.07588238642735   10.07492844707045
H         2.22984585900541    6.46239370295515   10.59925249604271
C         0.10071004010097    1.01270871334673    6.66185669305350
H        -0.23099203814453    0.02459838011870    6.36413040509902
H        -0.47200446410632    1.29939447251398    7.54543092996669
H         1.14208112543298    0.93108687310834    6.95769027104273
C         1.04603926453944    1.97428811488647    3.80533626959475
H         1.00431966261451    0.93556096170726    3.49295731855493
H         2.07477604367522    2.20486485981016    4.05382481798131
H         0.76730252745470    2.58505738428232    2.95283995810646
C        -1.90658202518448    2.06627264837558    4.55923486183904
H        -1.92269755223604    1.25232153549261    3.84088949112636
H        -2.24392760714427    2.96019790790207    4.04701050483478
H        -2.63174399983819    1.83313662092490    5.33169280734517
C         1.65828108854423    5.70763242221842    4.20677350368024
H         1.59303492414380    6.69708173007026    3.76424464125296
H         1.67239864911449    4.98542452965043    3.39763948775168
H         2.60313545247360    5.63984849245770    4.73184123289732
C         0.29283235834988    6.50504296304163    6.93075921224009
H        -0.54339335497156    7.19025230532689    7.00040600680546
H         1.20504086171626    7.08839184483932    6.94149583875372
H         0.28716511549523    5.88274076479380    7.82967825428631
C        -1.36955425653580    5.80974996311058    4.35202787645592
H        -1.41680178883514    6.87260879287672    4.13626342552358
H        -2.28074117007869    5.53650375717762    4.86887255009668
H        -1.35403255788030    5.28395547685350    3.40267572619144

