87
CSD_code = BIJSUK | q = 0 | S = 0 | Stoichiometry = C32H46N4NiO2S2 | MND = 4
Ni        6.57443024149392    6.57469827592871    6.48716697651505
S         7.83747971335564    5.71062447066247    4.96577329928520
O         7.75055405091905    6.02075938682000    7.85291351981508
N         9.48139229502467    4.79271729563873    6.93779633756374
N         9.66331796415420    3.80674599789613    4.91752363778626
C         9.04738869597753    4.71229744240212    5.69116406184471
C         8.88138046906394    5.47787193059230    7.89908163968745
C         9.40338996140381    3.66114450040266    3.50567975334557
H         8.43408003554892    4.11129271401293    3.28454406419249
H         9.35469412833363    2.59317090314035    3.27408343735323
C        10.47586102980130    4.32058490652073    2.62128167176419
H        11.44627417610562    3.86146327062351    2.84347138274961
C        10.57356755532684    5.81704847748046    2.89524427147506
H        11.33829652956824    6.26662263084391    2.26592588391969
H        10.83328276823120    6.00316714744194    3.93433130630588
H         9.62257759417530    6.30138184245574    2.69008794481848
C        10.13791195878703    4.06235575798186    1.15553375674919
H         9.17933361614735    4.51149428120278    0.90725794113834
H        10.08220253754349    2.99526647524993    0.95097505516644
H        10.89755373121560    4.49574753032328    0.50988560795672
C        10.68529532075527    2.96169188789563    5.50419991225240
H        11.37774785490407    3.59422832558166    6.06645432165065
H        11.22757077892048    2.47761327644419    4.69067983197563
C        10.11618197223298    1.89039023462537    6.44817494288445
H         9.58772691891519    2.40432416045348    7.25536345088161
C         9.13447251987892    0.97763443012149    5.71954648230427
H         9.62551621012018    0.46573149984933    4.89334953076836
H         8.29461797089624    1.54819953296111    5.33089679807911
H         8.74498803723588    0.22541779472133    6.40151179197209
C        11.26391426031527    1.08085553421174    7.04498324074410
H        10.88088372885617    0.34069411124447    7.74287479973305
H        11.95573483162054    1.72750122965602    7.57932419481424
H        11.81297901056322    0.56120232893717    6.26186448028892
C         9.62513470805800    5.53860682778849    9.18163235761882
C         9.10722216391145    6.29757989965372   10.22824817642116
H         8.17806714463689    6.82679857743650   10.07769310600941
C         9.78059740731031    6.36739532480072   11.43274717268656
H         9.37756677233328    6.95771399171200   12.24277746731534
C        10.97278838476163    5.68141457972777   11.60147847089254
H        11.49895717502429    5.73647479700234   12.54351222653133
C        11.49112389954394    4.92423456923622   10.56231444876347
H        12.42038166795734    4.38961608375808   10.69697499533104
C        10.82245025158410    4.85086486192396    9.35533605689455
H        11.20978522495334    4.26459867572130    8.53767812350799
S         5.31052825069010    7.43740300656885    4.96572625562880
O         5.39757194075767    7.12734931170209    7.85284193856033
N         3.66662912928614    8.35525301529943    6.93775003005139
N         3.48476848710995    9.34134093359492    4.91751508832400
C         4.10068810026025    8.43578127788445    5.69114791241669
C         4.26659909685294    7.66995719850035    7.89895676408403
C         3.74471500274454    9.48697706657939    3.50567510414129
H         4.71403367464649    9.03685734150030    3.28453244860747
H         3.79339446064477   10.55495487690765    3.27409506765621
C         2.67225431633878    8.82752110596894    2.62127353072073
H         1.70182458208093    9.28661087879804    2.84346147020782
C         2.57459566276182    7.33104915659059    2.89521207121025
H         1.80988095573949    6.88145695476320    2.26588885169179
H         2.31488490818370    7.14491279480313    3.93429661866627
H         3.52560101574404    6.84674660580276    2.69005082764412
C         3.01020768765951    9.08576642215258    1.15552945714840
H         3.96880141514375    8.63666133603394    0.90724863908446
H         3.06588096543898   10.15285874511466    0.95097817752822
H         2.25057950293683    8.65235543998499    0.50987781284021
C         2.46277593743316   10.18637708009554    5.50419049581597
H         1.77032417402903    9.55382685528808    6.06642805765995
H         1.92050452247565   10.67045269227133    4.69066747655557
C         3.03184515471542   11.25769328637172    6.44817252581989
H         3.56030757040593   10.74377278473743    7.25536252466117
C         4.01353707239290   12.17047495069843    5.71955243658795
H         3.52248904121086   12.68235978975672    4.89334708885878
H         4.85341600121119   11.59993429445144    5.33091895315419
H         4.40298628573510   12.92270446094251    6.40152306982441
C         1.88408279924171   12.06719075867140    7.04497096165809
H         2.26707995849136   12.80736421431152    7.74286833983184
H         1.19227894721381   11.42051844213522    7.57930155890791
H         1.33500915770032   12.58682329414624    6.26184479059026
C         3.52300136690197    7.60950098911515    9.18161981029502
C         4.04097901598437    6.85061043857569   10.22826033069085
H         4.97011193483358    6.32135872343457   10.07767900291797
C         3.36760150446147    6.78074829007436   11.43275561431058
H         3.77064103259159    6.19042901741645   12.24278323697501
C         2.17537886134313    7.46667116909880   11.60149270153724
H         1.64923525231920    7.41162990735111   12.54353666648687
C         1.65700596664376    8.22382106930542   10.56232375460514
H         0.72773387491956    8.75841391951352   10.69698921349262
C         2.32566894749580    8.29721958622929    9.35533737079301
H         1.93829319781889    8.88345274454195    8.53767802191993

