87
CSD_code = BIJTAR | q = 0 | S = 0 | Stoichiometry = C32H46N4NiO2S2 | MND = 4
Ni        7.83318111922382    6.63827483381954    3.76986890565721
S         9.64650483104442    5.68339815508783    4.44183227244429
S         7.22542832302133    4.82626543273435    2.77113686054124
O         8.38061004558454    8.29125320082024    4.49453885973564
O         6.19929339410245    7.47660241841751    3.34109044374777
N        10.36010986480259    8.02284428442470    5.66180633572375
N        11.43657866078742    6.14276530518532    6.30679321890497
N         4.92743714201803    6.08747713166691    1.99712342255480
N         5.48945850237587    4.18762527333672    0.90867283368579
C        10.49742200478213    6.71404642688839    5.53636100466646
C         9.38777302892213    8.72864857937689    5.10138293485216
C        11.74853843858328    4.73632069496468    6.21016650630140
H        10.81710821541844    4.19250499532940    6.02774203971839
H        12.15964846573188    4.41818518201896    7.16994390329897
C        12.73109081375875    4.42019378228518    5.07680043815224
H        12.40244293268894    4.95531775105946    4.18490106294590
H        13.72816504985096    4.77704873652818    5.34202798543981
C        12.79034696417851    2.92721929136626    4.76034671303528
H        13.42524626967142    2.78566256438932    3.88320087487485
H        11.78834233029329    2.57964618104447    4.50314203611472
C        13.34257737792545    2.09313427324509    5.91068280577084
H        14.31833135869060    2.46422428592554    6.21776134762058
H        13.45423015960108    1.05601148289256    5.60341801872465
H        12.67607703360239    2.12000589129042    6.76868755552709
C        12.23129793093217    6.98228680661018    7.18123062583176
H        12.66837551006705    6.34885950254239    7.95603642188876
H        11.56265783053306    7.70685945146709    7.65291720223818
C        13.33400969631321    7.73753836430702    6.43510460391665
H        14.03319416088977    7.02721597979870    5.99085572388723
H        12.87179331893898    8.30623432109771    5.62743867178994
C        14.08937089537033    8.68396592741844    7.36424736797075
H        14.57051821214233    8.10804649220555    8.15854566910653
H        13.38094118219882    9.36814800127103    7.83653498924282
C        15.14105480691859    9.48801318975068    6.60998777606068
H        15.86884468842604    8.82582155899911    6.14622040186580
H        15.66835245403951   10.15786462079050    7.28508568809426
H        14.67445356219250   10.08361233191483    5.82864961101074
C         9.51517113738273   10.19826600498842    5.26192321982623
C         8.56031404700624   11.02885093642799    4.68039829536486
H         7.74936612290218   10.58116603713874    4.12555922849097
C         8.66169540463322   12.40045483946293    4.81291899468240
H         7.91983077199129   13.04254815901830    4.36076064102359
C         9.71562916419428   12.95250178318211    5.52352018224687
H         9.79479867622934   14.02514630782981    5.62600283555491
C        10.66908363355798   12.12928625960808    6.10250754410293
H        11.49042835746722   12.56207008246787    6.65534340827445
C        10.57182573093417   10.75684037774116    5.97527513986199
H        11.30308330324666   10.10243434798418    6.42087063955563
C         5.79244191426242    5.09923940543838    1.84657208349386
C         5.13686460229844    7.15328915518567    2.75748617934769
C         4.25735160529579    4.33619852825289    0.15957344262998
H         4.34631057869040    3.75528901601015   -0.76082363593958
H         4.14508750550394    5.39230156636982   -0.09866892474148
C         3.02557858875758    3.88609983330209    0.94909429576387
H         3.10094579607801    2.82174979986972    1.17785974027660
H         3.00569757994379    4.43351614499097    1.89213295914545
C         1.73822068680793    4.15008837833484    0.17269724581770
H         1.68643724882989    5.20865850725667   -0.09150526166985
H         1.75070969622767    3.57842337862880   -0.75851288498121
C         0.50616746062770    3.77189572096413    0.98546213350642
H         0.52834311464987    2.71573386765044    1.24492217582802
H        -0.40125074979615    3.96659411856178    0.41874079103876
H         0.46757595519524    4.34921737234699    1.90643672855236
C         6.31140224465221    3.02150510071154    0.68782751101758
H         7.35911666817380    3.31393503384502    0.80587735509372
H         6.15810122443523    2.68671756386527   -0.34108260715184
C         6.01020995764581    1.87635106776949    1.65894718800696
H         4.99633523382452    1.50790474309184    1.49225062600201
H         6.07120393514133    2.25858960872439    2.67840047661830
C         7.00425996780309    0.73145782830695    1.48745254005478
H         6.96151772271603    0.36289109378694    0.45957339029229
H         8.01313111972461    1.10772396096983    1.66575112631150
C         6.71300356899137   -0.41255176299358    2.45047037487041
H         6.77129183808290   -0.06459288060426    3.47894698354065
H         7.43282249626013   -1.21668322709570    2.31812829870476
H         5.71591499215298   -0.81325229342156    2.28015919882745
C         3.97516493696688    8.06854772089172    2.87818159866593
C         2.77453636542948    7.79994667878448    2.22726016143215
H         2.69719663487096    6.91096429073831    1.62287716114207
C         1.70759284927213    8.66750822654856    2.36236490274818
H         0.77539211149094    8.45743342774260    1.85798465564930
C         1.82993863157616    9.80707166972380    3.14239811761210
H         0.99372714273823   10.48360112406389    3.24439251914871
C         3.02362629154119   10.07833889552753    3.79200914171666
H         3.11782546286353   10.96566201206024    4.40100212068305
C         4.09310554157518    9.21307732837499    3.66304263299508
H         5.02886855353498    9.40495015731017    4.16645419602309

