32
CSD_code = BIJTUK | q = 0 | S = 0 | Stoichiometry = C13H16Cl2Zr | MND = 12
Zr        3.14548111683387   -3.18975387749686    5.90235985084363
Cl        3.79202216688344   -4.38311510782951    3.97178949342245
Cl        2.73181021970730   -5.18583274156672    7.05362106842320
C         4.15905741149397   -1.33930855957062    6.95147955063498
C         4.83410531832564   -1.30448168489858    5.71405405839001
C         5.65964816837534   -2.35120994377985    5.31565471117585
C         5.76418325766280   -3.48448453929827    6.17942615292115
C         5.20531424746994   -3.48667043521882    7.42711857509634
C         4.72380960881515   -2.19646663098542    8.07854342552824
C         3.61267295899903   -2.49484431105028    9.10119836335690
C         5.90111032885764   -1.50009022636474    8.79348914464400
C         1.16810226209744   -1.70118791364000    6.43273623083548
C         0.68253860660393   -3.01758501599697    6.27389554363358
C         0.88711497599709   -3.39897580049326    4.92832039881657
C         1.48311447582705   -2.30846763352854    4.25056721369665
C         1.65320569418446   -1.26120795218481    5.17673623231451
H         3.65807892747378   -0.42811672603298    7.27806068651510
H         4.68335837871759   -0.46024085010194    5.04177449106572
H         6.17071301586039   -2.34209204992971    4.36250562220459
H         6.28111404579373   -4.36909725123006    5.81449721256937
H         5.34228334492852   -4.34310172787688    8.08240749965593
H         2.77164324993253   -3.01777315975452    8.62089741651186
H         3.99671339733209   -3.12567419158196    9.90141960898648
H         3.25098104956496   -1.56806500587116    9.54644580731982
H         5.57185888589246   -0.57221886961197    9.25622553153536
H         6.68293837890208   -1.27177592377169    8.07266069638169
H         6.31677199794080   -2.14614644330736    9.56329526424141
H         1.03464954356773   -1.08357390439731    7.31243754381893
H         0.15465421848491   -3.59727808319481    7.02237152113316
H         0.56055608559199   -4.32775372556756    4.47353286362293
H         1.67888541901413   -2.25789109459640    3.18587376256341
H         1.96640924286893   -0.25211861927205    4.93910445814114

