32
CSD_code = BIJVAS | q = 0 | S = 0 | Stoichiometry = C13H16Br2Zr | MND = 12
Zr        2.08628542935215    6.30217882491401    2.66566141009480
Br        0.78132281142314    5.05828588678516    0.81342134673130
Br       -0.17294391813814    6.95173121891492    3.71409511809963
C         3.96526893067295    7.81405155236498    2.65990816388961
C         4.04671184234328    7.22971987241804    1.39256934320678
C         3.01561175865303    7.37404680241019    0.45793091310895
C         1.87932314130265    8.15144105396302    0.83245123327084
C         1.81978090798323    8.80279457941170    2.03318969781364
C         3.06084581446975    9.01819851210251    2.88710298529687
C         2.68933259154415    9.11668818700133    4.37881721778588
C         3.75647965976002   10.33010937532508    2.46188938764294
C         3.57895961013055    5.51526829094063    4.57576740411671
C         2.25997616582657    5.09785669350477    4.85549543923094
C         1.88407641457235    4.15245401422483    3.87549729951390
C         2.98045072813387    3.97435286028134    2.99914699534234
C         4.02513779304665    4.81121711481959    3.43303711949027
H         4.84695422110257    7.77668941741771    3.29792293510353
H         4.90878222651023    6.61454929077897    1.13543075705798
H         3.07309709926846    6.92514575877610   -0.52570261632152
H         1.02735151043752    8.18822544818397    0.15537013932213
H         0.95881888665429    9.42519876500487    2.26475323898978
H         2.26731085580300    8.17385962279127    4.75476469740204
H         1.95454488677742    9.90541486939515    4.53451133346422
H         3.57260149575694    9.35845113938336    4.96938386427772
H         4.02327597945461   10.28080967801636    1.40822025449680
H         3.09290917255967   11.17859056611566    2.61222846549317
H         4.66282419954792   10.48850085606896    3.04277860866682
H         4.19331510000010    6.12935437548085    5.22229376563969
H         1.67723952294397    5.36818173704857    5.72911043025535
H         0.95263153439527    3.59586836975600    3.85223520598142
H         3.03683236504865    3.24471264192995    2.19943823256385
H         5.03619126266569    4.81225262446619    3.04567961297868

