74
CSD_code = BIJVOH | q = 0 | S = 0 | Stoichiometry = C27H41N2O2PRu | MND = 6
P         6.57855649512603    9.27431221918996   13.84879931206757
Ru        6.10524360740520    7.19683178922824   14.67632823075446
H         5.00810238245927    7.03770996889529   13.61996520892693
O         4.09958327423103    7.98438365339432   16.75975895706947
O         7.74019310661945    6.99998946996422   16.09070641352287
N         6.15505572582507    5.04667495838078   15.07812367581283
N         7.44063215258867    6.67087972755080   13.34155062488346
C         4.87885866170406    7.67313700770975   15.96350928883799
C         8.39036500398271    5.84319578145088   15.92658265410092
H         9.40504015873736    5.98984014946522   15.45333503289890
C         8.69868859284299    5.11088799215410   17.23045747164631
C         8.30907770771550    5.66660618051122   18.44077621248802
H         7.77745874403337    6.60757438367744   18.42466908712132
C         8.60915965762278    5.03404912453808   19.63345733379962
H         8.29725095370409    5.47572493570649   20.56884141011911
C         9.31044247339536    3.84097684888781   19.62855132353411
H         9.54346776565665    3.34208380845331   20.55804449017874
C         9.72854321619796    3.29527621565035   18.42605281249208
H        10.29303758672416    2.37338741151756   18.41713166037674
C         9.43168429433592    3.93059023198455   17.23389840820603
H         9.78379630639092    3.50878644770477   16.30074176792347
C         7.61046937556752    4.89930181292717   14.89472384956903
H         7.92911532260506    3.85130291912399   14.98888510764539
C         7.99928546582407    5.47522189196208   13.57496315118062
C         8.98279057123261    4.95354564036613   12.74522394265937
H         9.41416927141019    3.98781380584092   12.95966237417870
C         9.39679064850816    5.69842677514299   11.65392952143895
H        10.15252436673221    5.31774624331876   10.98453778127148
C         8.83846850037115    6.95400688258957   11.44579418121464
H         9.16359902182238    7.56904281597876   10.62048843408365
C         7.85952418878371    7.41677469842598   12.31036381024818
C         7.20489118339949    8.75587470000229   12.16776516352956
H         6.30646830816237    8.63646160716533   11.55179698261307
H         7.86585044169184    9.48446107080567   11.69193861227897
C         5.71386247109277    4.74252888060709   16.45143582795836
H         4.64995258477297    4.98798934271911   16.50966459500251
H         6.24288963904837    5.42144462993137   17.12207148092514
C         5.92319715383013    3.30627485529712   16.93323129512085
H         5.33284896961978    2.59206787333352   16.36395458900400
H         5.60821037581301    3.24904060904120   17.97239796256659
H         6.96979142415340    3.01534783763847   16.89298531233907
C         5.48829758774446    4.16609667085920   14.10085499116716
H         5.84056825799714    3.13223623828885   14.23550496066540
H         5.79458944793705    4.48954755141498   13.09998717923439
C         3.96693323948757    4.20220238175570   14.17007939126106
H         3.58426526562487    3.67533801061760   15.03975473000488
H         3.56038508384266    3.72658258674946   13.28051117470233
H         3.62754633036470    5.23654782445983   14.19849883673607
C         5.22726084969011   10.52598337187848   13.38905120497203
C         3.99703418375696    9.70973272288982   12.98794744424159
H         3.17761152771532   10.38071710370354   12.73352841403429
H         3.68813248381303    9.07008568994120   13.81249051884772
H         4.19649698955425    9.07617421166881   12.12671072054009
C         5.57760743032687   11.46521402658712   12.23467646098664
H         5.76267308213998   10.91254067156417   11.31698093285484
H         6.44107870246266   12.08409160639520   12.44820124745304
H         4.73128155568892   12.12813913687418   12.05558466761970
C         4.86075678036531   11.31714409401848   14.64429527593140
H         5.61931033876829   12.05275955226486   14.89779896801313
H         4.73066154477794   10.63066234719364   15.48117564388699
H         3.92171204094526   11.84708332928572   14.48849361652459
C         8.06986144855346   10.17657749872549   14.60557431474573
C         8.42233597874266   11.53779620241737   14.01166552496175
H         7.66241846392675   12.28381603593220   14.22554702851710
H         8.57530975403361   11.47682765961100   12.93559985390434
H         9.35474262404179   11.88327290727862   14.45890564237626
C         7.78311547844531   10.28837757226568   16.10381972527011
H         8.66752969909015   10.65062466034730   16.62704538904913
H         7.53410944130651    9.29996823060031   16.49043196404915
H         6.96140441150892   10.96617746743077   16.31506949176346
C         9.26990448693499    9.24187957167276   14.43879212534477
H         9.56363589596260    9.11995171529127   13.39711586222995
H         9.03263923672813    8.27336116475539   14.87316093274366
H        10.12425320603895    9.64461698703413   14.98265041380138

