73
CSD_code = BIJWIA | q = 0 | S = 0 | Stoichiometry = C36H30Br2O2P2Zn | MND = 4
Zn       -0.12848699173911   -0.14899195732409    0.16900770915639
Br        1.80564452228407   -0.29608439281592    1.45706408107369
Br       -2.07308237864270   -1.19615084859221   -0.50719293276938
P         1.83368874987191    1.28696865980992   -2.04194536883187
P        -1.62389219518067    2.89705896011763    0.94607375799413
O         0.66615093555778    0.48363517055831   -1.58240604941912
O        -0.81266446202801    1.67187912417990    0.71631476151044
C         3.38269037943928    0.35660417262167   -1.92285736217721
C         1.59211433617697    1.73003487912708   -3.78326449953904
C         2.03568220468254    2.84780023298641   -1.12622026999531
C        -0.64102528506125    4.13365633713788    1.83869324186292
C        -3.09566371853292    2.54093555227888    1.94907614275840
C        -2.24949967690439    3.59173684616327   -0.60719978666850
C         4.62114062409294    0.98409580191424   -1.87530082054474
C         5.77080644616666    0.22014950122726   -1.80057680984062
C         5.68738907426803   -1.16307730076612   -1.77644618019995
C         4.45324773458751   -1.78893518231693   -1.83453031537657
C         3.30073482177018   -1.02959247364078   -1.91314134260078
C         0.45704983107147    1.26849430171550   -4.43491003833674
C         0.24896148672307    1.58673691980522   -5.76569497051580
C         1.17703095307865    2.36025641216006   -6.44296064918588
C         2.31478559323997    2.81559292972282   -5.79303390401165
C         2.52561935082161    2.50155620500478   -4.46362410632586
C         1.40937147507523    3.99739056001729   -1.59182812360201
C         1.52704706879256    5.18087295640047   -0.88619250117508
C         2.28007708966331    5.22147475207596    0.27570829108721
C         2.89567757174857    4.07300992546533    0.74528465540302
C         2.77350814163945    2.88283733244023    0.05020186337676
C        -0.83224668521171    5.50171501192696    1.70339890164995
C        -0.08426202980145    6.37609290015400    2.47146196645455
C         0.84984279650954    5.88873378858570    3.37230005654109
C         1.04915717080191    4.52363803222918    3.49839748402241
C         0.30517575475781    3.64549595654324    2.73166158309844
C        -3.37163465775713    3.19588943024320    3.14114263286805
C        -4.50082233850856    2.85061145538944    3.86336377452713
C        -5.34792775571855    1.85753587015344    3.39792832561662
C        -5.07324794926760    1.20701074919959    2.20503006699042
C        -3.94954956126947    1.55024176376377    1.47648221168058
C        -1.74404194452281    3.11766629862271   -1.80865205054271
C        -2.21345161153602    3.62582167424452   -3.00679715009657
C        -3.19361585990982    4.60425927709240   -3.00238136184034
C        -3.71686581249903    5.06314150545760   -1.80273845879022
C        -3.25127291262246    4.55571358583973   -0.60410954195961
H         4.68114731874157    2.06340914628839   -1.87829615697319
H         6.73482523355436    0.70472773766982   -1.75296103511734
H         6.58813504547305   -1.75445029664735   -1.70819364620274
H         4.38881218355004   -2.86618606303154   -1.81286431551490
H         2.32990567687709   -1.50448992475422   -1.95409374022916
H        -0.25357720074452    0.66118257478157   -3.89231458194274
H        -0.63370640275266    1.22755099778835   -6.27385963856325
H         1.01734812893311    2.60774278632430   -7.48197820502841
H         3.03694224955207    3.41673472971349   -6.32558853180195
H         3.40740163108591    2.85452095899355   -3.94808901380611
H         0.84134185449527    3.96619425446400   -2.51194894269968
H         1.03688449063092    6.07285890210028   -1.24880448194877
H         2.38365469864549    6.14956492683812    0.81772092387354
H         3.47670646916700    4.10174287709731    1.65443226874370
H         3.24696911287075    1.98490484361816    0.42112086804085
H        -1.55844495011246    5.87916385094413    0.99826819281500
H        -0.23194188967193    7.44140342008094    2.36840822658171
H         1.42628285561145    6.57637904382250    3.97368328645125
H         1.77966008586918    4.14146405976763    4.19532260754782
H         0.45658747196871    2.57908405861688    2.81618968447705
H        -2.70277463630494    3.96498061027520    3.50279114391465
H        -4.71736522245238    3.35555530415290    4.79338185481626
H        -6.22382726398846    1.58817886682103    3.96929433044162
H        -5.72805390319408    0.42956004609727    1.84256764657061
H        -3.72595916169404    1.04482308158396    0.54707565446576
H        -0.99204653720453    2.34319993266733   -1.79518286080518
H        -1.81751650810261    3.25479313411100   -3.94141932518445
H        -3.56276256778301    5.00204977000474   -3.93608050427329
H        -4.49598564958481    5.81135700735310   -1.80435891457148
H        -3.67308289977740    4.88768668543792    0.33489029226420

