39
CSD_code = BIJWAU | q = 0 | S = 0 | Stoichiometry = C19H17AuN2 | MND = 2
Au        2.30465526693403    1.06539459055456    2.78950851499974
C         1.58161146495746    2.33708938008934    4.19127848809739
N         0.28938138270933    2.63707237737957    4.42220305720478
N         2.27914038652386    3.03336016211161    5.10891439894067
C         0.17635077973079    3.50244680742020    5.47619227158039
H        -0.76967239860617    3.85901693347575    5.82734852785084
C         1.43379026393425    3.75628830556641    5.90789616971972
H         1.78793676138641    4.38138548978506    6.70138794010815
C         3.70780788633803    3.02373495654380    5.24221225318585
H         4.12513887698894    2.39993278681358    4.45209930476589
H         3.99790378541979    2.61548926167462    6.21252336894798
H         4.10566740788315    4.03608482786283    5.15231250571353
C        -0.83505886876901    2.07049282978193    3.71759727539072
H        -0.44457063817183    1.59180714555970    2.81374512936948
H        -1.52229457535061    2.87291147132377    3.43339478505230
C        -1.53766339650775    1.05463038088572    4.58505628782332
C        -0.87513497729956   -0.11359462291699    4.94179887202195
H         0.12140027666031   -0.29589350718804    4.56298668494784
C        -1.48844851484511   -1.03924909641733    5.76528636652733
H        -0.96737862276567   -1.94503186001771    6.03572966624314
C        -2.76908729937931   -0.80630807917471    6.23875823934414
H        -3.24806431169527   -1.52913335640254    6.88218276850267
C        -3.43453071608456    0.35438138651060    5.88481007113873
H        -4.43436159557407    0.53929899462483    6.24966525652979
C        -2.81914140452759    1.28397501808333    5.06354719952047
H        -3.34312935336951    2.18846134676554    4.78759047494266
C         2.98201094308405   -0.15825774260974    1.45393299936888
C         3.40387616454578   -0.92450520997726    0.61595488168760
C         3.89390773284439   -1.82351080050021   -0.36162312912416
C         3.18605843114778   -2.98686924729561   -0.67344849946295
H         2.25832647013401   -3.19298399139379   -0.15682734717250
C         3.66473257796997   -3.86125099128902   -1.62872405135040
H         3.10866550204042   -4.75929015188550   -1.86286220109157
C         4.85356190420004   -3.59385026284668   -2.28916201232123
H         5.22561609111247   -4.28025099854525   -3.03690083197114
C         5.56299648800282   -2.44221157556502   -1.98676690561758
H         6.49111462379610   -2.23090535628623   -2.50100694216706
C         5.09109483412927   -1.56283943001868   -1.03255588013628
H         5.64289037047147   -0.66321817248155   -0.79533595911568

