70
CSD_code = BIJXAW | q = 0 | S = 0 | Stoichiometry = C31H32MoOP2S3 | MND = 6
Mo        2.55318179790982   10.83352942608458    4.12271826614737
S         0.49205363235825   10.84326741186836    3.00013231122161
P         4.40326783988757   10.32315317048923    5.53127945476281
C         3.06425823329009    7.97095313657163    6.06125474675635
H         2.67172176626649    7.23470898017513    6.77174879034976
H         3.54852477321228    7.42476620927856    5.24449042231958
P         1.70724763618812    8.93127361143566    5.28582561144328
S         3.38247982156578    9.60569749514341    2.16630051396051
C         4.03184954749051    8.95092147863485    6.70508927631829
H         4.95024769249485    8.45706712525829    7.04124692382713
H         3.55593407951825    9.44095146647653    7.56400095028257
S         3.87133541664664   12.57997819836317    3.30268623595259
C         5.96493939748044    9.82799923241613    4.73580627613224
C         6.26777931809761    8.51114866452657    4.40456938642848
H         5.60561575011667    7.70912608629165    4.69908456077922
C         7.42136620292745    8.21941861162192    3.69792155972729
H         7.65347114829539    7.19352156752651    3.44996357509604
C         8.27563641676582    9.23669685528103    3.30548082978306
H         9.17437998486827    9.00464815598841    2.75328010668215
C         7.97189423023197   10.55325449378675    3.61734049577731
H         8.63270010628696   11.34931754223068    3.30585223065150
C         6.82120831754830   10.84920213328332    4.32348762475687
H         6.56643735829828   11.87547346563386    4.55824288601376
C         5.06149074645971   11.57123917261920    6.67742263827727
C         6.04701741057550   11.21013502805866    7.59547539916034
H         6.42606752585368   10.19683895203696    7.61003661358441
C         6.55237265494295   12.14889073443241    8.47359771199376
H         7.31412469298367   11.86477194253701    9.18550857524519
C         6.08712209257484   13.45468760664715    8.43799072405318
H         6.48456450674154   14.18628958510703    9.12619802466111
C         5.12335567713037   13.82119899978829    7.51456877881057
H         4.76891193582648   14.84034358903883    7.47620486374452
C         4.61099118731010   12.88329949789044    6.63392796165744
H         3.87184293224475   13.16598464118899    5.89735212822316
C         0.57053066907153    9.31993438566716    6.64571658828847
C         0.73087474669426    8.92034043690043    7.96815789820501
H         1.56026295760435    8.29516722598784    8.26547909079785
C        -0.18137670704578    9.32263085751842    8.92924681584813
H        -0.04521292754072    9.01267058545193    9.95562316892405
C        -1.25987649706020   10.11744370574750    8.58339540068398
H        -1.96564249681146   10.42904917336365    9.33922578044591
C        -1.42763443590209   10.51762610061774    7.26672522582205
H        -2.26465089554790   11.14178204718924    6.99152776019254
C        -0.51560090021696   10.12810350167508    6.30605399799639
H        -0.62850293920445   10.45128697488363    5.27769838541320
C         0.82908617893213    7.59765606666387    4.41160051513116
C        -0.49369277436122    7.25447249355910    4.66814347785505
H        -1.04118325581259    7.76222598123541    5.44891177654929
C        -1.10855794219530    6.26373271503122    3.92175707591597
H        -2.13696553164628    6.00311124045595    4.12510615710662
C        -0.41475729079292    5.60939653628986    2.91817551132366
H        -0.89961777369695    4.83813281224468    2.33807525968946
C         0.90227896366562    5.95130842937766    2.65313593122956
H         1.44514525899313    5.44895995552875    1.86522047421397
C         1.51822388908781    6.94433678159851    3.39068910635281
H         2.53897148150388    7.23169795494441    3.16712769739881
C         0.72245917262806    9.80305442419096    1.51943199259144
H         0.55776104274083    8.76341890096350    1.81363862129998
H        -0.05155575469373   10.10535558900334    0.81168383713760
C         2.09340397800153    9.99527954049979    0.92248750273077
H         2.22982305869835   11.03747517329718    0.62378333774844
H         2.25908064889812    9.33186409486182    0.07012759471790
C         4.75783140409749   10.60540407812530    1.50307038690162
H         5.62975104671001   10.25674940927683    2.05791190580231
H         4.86303937917546   10.33054971442769    0.45163276036332
C         4.56918177166594   12.09226498669869    1.67594426534279
H         3.88940142953784   12.50573640037063    0.92570271445205
H         5.53010387001886   12.60294014739699    1.59392361269933
O         1.32250529187687   12.56526819791055    6.34013586531480
C         1.80402005262696   11.92061911306336    5.52234605280868

