95
CSD_code = BIKBOP | q = 0 | S = 0 | Stoichiometry = C30H55FeN5Si4 | MND = 3
Fe        7.26974525684611    3.05108271469961   10.66086652835324
Si        4.86878283277876    5.17563878314524    9.98750493751654
N         7.05249514265494    0.11345308939169   10.60102943699598
C         5.80839402021109    0.04333438661560   11.28069387794194
Si        5.44825184993770    3.92371342445297   12.68393982090551
N         8.73475966158822    0.69813507365748    9.40560641727676
C         4.66551318551541    0.53441694703353   10.63838385163993
Si        9.41294800690800    4.83224790240050   10.43884368550907
N         9.94639509393454    1.48136538080048    6.20818526694940
C         3.42742425684315    0.33184604056425   11.22112695857311
H         2.54254003622074    0.69165651917825   10.71597594566305
Si       10.45260378017178    2.49369312027726   12.03188323545700
N         5.77419194328786    4.08429482121312   10.98359672724017
C         3.29215411326861   -0.33526381620539   12.43229309594243
N         9.30529589010342    3.20168190407008   10.97241398409885
C         4.43541449769847   -0.80905728722237   13.05042262626718
H         4.35456089344028   -1.33433012340751   13.99137619316527
C         5.69602759729461   -0.64721996971302   12.48710475026932
C         4.78979193632818    1.26264067192247    9.34135471301221
H         3.81102287985673    1.48534345410433    8.92796446814819
H         5.35486950119385    0.67933297747844    8.61616274634025
H         5.31949567849888    2.20202945562122    9.52822181127549
C         1.94020931588912   -0.51253534077193   13.05098812134355
H         1.97269096192295   -1.23292882818939   13.86414750529184
H         1.21853580121929   -0.84951187566818   12.30943628847577
H         1.58969100488265    0.43973815040992   13.44861158067488
C         6.87599494037235   -1.23350999753027   13.20275818531386
H         7.81495759508596   -0.94680246287940   12.74344212528473
H         6.80741784597397   -2.32159758827353   13.20825370729687
H         6.88191224103662   -0.89950475186354   14.23902416447936
C         7.74059007874160    1.21033645857232   10.16645433680589
C         7.62927160938441   -1.04166870804992   10.12359256476715
H         7.23105034165843   -2.00989265654266   10.34682065318373
C         8.68425028844688   -0.66875644563702    9.36974387077374
H         9.39072157982252   -1.25454898709096    8.81862216997381
C         9.65477119551622    1.45886880405482    8.60627123980218
H        10.61055080999680    0.93830646678234    8.53599951066902
H         9.79312478745290    2.41493758032396    9.12568632599599
C         9.11746464684372    1.68758475287802    7.22165458092107
C         7.80241422032902    2.10822211880015    7.04084580656211
H         7.18242951134341    2.26696245480617    7.91201167749268
C         7.34511214716818    2.32533480733758    5.75496713375525
H         6.33220001198206    2.65761042162898    5.57941620337291
C         8.21597208814013    2.11627024030040    4.69395826227136
H         7.90221211058315    2.27580213790517    3.67435285464935
C         9.50489795602429    1.69691228184194    4.98017963390457
H        10.22386919482932    1.51795931713941    4.19124241810356
C         4.92397398941341    4.65689699050851    8.14189803624987
H         3.93428382145684    4.39158065188018    7.78460952959391
H         5.57489913580131    3.81159098769918    7.95825542680924
H         5.27996358086139    5.47742826067786    7.52857989733564
C         3.01815801240851    5.18961356769714   10.46745504886747
H         2.46289896025793    5.87418588864914    9.83367353139685
H         2.88066952802973    5.50544834897275   11.49495941312530
H         2.56760314920745    4.20835456473622   10.36502169504573
C         5.47915840755394    6.98305597879321   10.10563798581775
H         4.86600591359387    7.63627913966885    9.49153902147043
H         6.50520152860765    7.08093061855634    9.77007840622851
H         5.43166301083790    7.35165897892058   11.12465355839044
C         3.77879827069040    3.07160300392980   13.09109874375153
H         3.92160918125632    2.24433896763022   13.77845470920241
H         3.30409118886507    2.67675174046697   12.20237238018669
H         3.08822371342066    3.76907910240115   13.55324756523614
C         5.40863966447739    5.57025197734097   13.66005221203587
H         5.15660755556759    5.38573262220717   14.70005157734798
H         4.65844689391164    6.24269911456521   13.25685186038849
H         6.36043317006169    6.08858405466766   13.64260118999930
C         6.87875058071923    2.84259915650649   13.30947575558836
H         6.80862659416137    2.65689421939007   14.37456156553798
H         7.83311902933027    3.31853908561350   13.10991763023513
H         6.87232470393158    1.88209414214370   12.80338914013939
C         8.44129373683868    4.93500179938507    8.79612479015121
H         8.25219721458268    5.96378087014083    8.51500822321940
H         7.47978455759743    4.44174442637553    8.91166232503630
H         8.96761823388860    4.46701749675667    7.97240808509005
C         8.65477466707536    6.08193591686702   11.67048729338581
H         8.75842095332296    7.10909774209793   11.33545669821029
H         9.12521275123325    6.00575214758530   12.64487335104566
H         7.59872869636200    5.87080546764702   11.78918753832517
C        11.18891431012142    5.42685418046014   10.04907854775671
H        11.19205400011038    6.47079677560704    9.75331620963670
H        11.63205672481546    4.85670829495765    9.23991254952004
H        11.83267739230264    5.32720090287180   10.91447463397442
C        10.89097543670885    3.60902332092159   13.52584147114111
H        11.62434509960885    3.13756169565724   14.17282776968378
H        10.01811897139289    3.83284385588670   14.13071793356917
H        11.30663677396351    4.55306066879169   13.19069790945019
C         9.86111082595536    0.83063986712504   12.75549244383777
H        10.62529580344390    0.41736793828588   13.40543766733616
H         9.67401851539695    0.10130092124836   11.97613800608565
H         8.96009859123943    0.95032994034821   13.34137545922426
C        12.10607427877848    2.08005581002251   11.14595810976859
H        12.92145519563100    2.01874557361040   11.86006844673944
H        12.36834074944059    2.83485831889316   10.41462680207465
H        12.05795659654498    1.12580108447653   10.63095985606011

