104
CSD_code = BIKCUW | q = 1 | S = 0 | Stoichiometry = C47H47AgNO6P2(1+) | MND = 3
Ag        2.02054551304656    2.33137432390471    3.43729171641517
N         0.64394657029080    3.53092852755843    1.89083810521501
C         1.00525110852947    3.65786552814513    0.61737889046748
H         1.96700015436529    3.23790237554916    0.35300900123807
C         0.22058576597157    4.28610706824687   -0.33469320243942
H         0.56068140687162    4.36185018544255   -1.35529230249386
C        -1.00215011055945    4.81134483376381    0.05261734790287
H        -1.64168367042459    5.30764377817656   -0.66128221901444
C        -1.38336895648256    4.68429060295771    1.37909385648132
H        -2.32526538099645    5.07758704192852    1.72706435495947
C        -0.52971440907313    4.03781722279071    2.25678111388148
H        -0.79185450591487    3.91927841856619    3.30006116974843
P         1.03604599806632    0.85051424276234    5.17130154640028
C         0.26440033501599    1.78839815442835    6.51437299684879
C         0.50859329457618    3.16199496221920    6.61145291820105
O         1.38928905902752    3.67468252520451    5.70070902619070
C         1.75486539538236    5.03571722332064    5.79669164943988
H         0.89915876662806    5.69451208517110    5.62156055048753
H         2.49936062551610    5.19961439502192    5.01762378267831
H         2.19817405957961    5.25853591566256    6.77146518192849
C        -0.12001000949790    3.92477099061814    7.58662181952967
H         0.06971950373860    4.98135073537351    7.65861827504513
C        -1.00167922038415    3.31223812249969    8.47426349447503
O        -1.67179690162137    3.95629979243780    9.45232420452438
C        -1.49157961191378    5.34468654600445    9.62070973587591
H        -0.45249363034364    5.58800876409941    9.86162312772084
H        -2.12819483911967    5.62159684970774   10.45876404825431
H        -1.80407293636439    5.90072163266116    8.73172330014670
C        -1.23904228859173    1.93882959512658    8.39905032342777
H        -1.91460280697854    1.50909835398821    9.11857439765214
C        -0.60591610760714    1.17766775967268    7.43385698621359
O        -0.72950409368484   -0.15912294802546    7.29857961446097
C        -1.64392163439481   -0.85475453877913    8.11466316939527
H        -1.35907338823520   -0.80123203260699    9.16930826406656
H        -1.60296876371902   -1.88972331763700    7.77988406406367
H        -2.66053385868682   -0.47244959194730    7.98931932790313
C        -0.24515192207145   -0.35559441091430    4.69998103158127
C        -1.44574668258501    0.16543184852866    4.22422343652226
H        -1.58266122977450    1.24026925387886    4.19855941787673
C        -2.45487501558365   -0.67952103080066    3.80558700409473
H        -3.39026517427579   -0.27181654626406    3.45112231600793
C        -2.26373548803647   -2.05233789649323    3.83781218681743
H        -3.05086112492511   -2.71443212669302    3.51026513311292
C        -1.06191351429975   -2.57265855288276    4.28826044285162
H        -0.91259082571919   -3.64215681636086    4.31026559924662
C        -0.05073890398519   -1.73051267870398    4.71724707671030
H         0.88102812682650   -2.14003663794193    5.07947788236300
C         2.31979673925871   -0.15865206470419    5.97310535869153
C         3.22080682089113   -0.79473210767707    5.12040849648117
H         3.11572234239246   -0.66256215341317    4.04871777374647
C         4.23546399589765   -1.57719346390727    5.63469230302717
H         4.92655042015738   -2.07397733395992    4.97015114109869
C         4.37047726791830   -1.71505389761508    7.00739406695296
H         5.16319005892985   -2.32557867872780    7.41237700587551
C         3.49529730055871   -1.06217763955920    7.85856043087357
H         3.60939310350733   -1.16185935395383    8.92796744406535
C         2.47210835493480   -0.28217888178784    7.34757103559167
H         1.79719557106017    0.23128841672570    8.01544651266852
P         4.48073056003356    2.69285127247306    3.24922793632828
C         5.12653529426206    2.03931737533547    1.68935915874967
C         4.32565741123643    1.16621692722375    0.93795929463258
O         3.13448580311744    0.81444293041204    1.50421421196526
C         2.32957732648831   -0.13829724469755    0.83888789183966
H         1.98468042073493    0.23561584323785   -0.12924970966647
H         1.46997985047955   -0.30701001299250    1.48723148351775
H         2.86964902997594   -1.07822615374885    0.69687679782790
C         4.76025823381323    0.71467799936074   -0.29305098590818
H         4.18030424736871    0.04619269156321   -0.90553029646975
C         6.00077715733480    1.12339681579755   -0.79214251026202
O         6.31419761329341    0.63082689930298   -2.00856432482169
C         7.54934017450780    0.97470603787829   -2.59723203681950
H         7.63011538465152    2.05382318980739   -2.75753773030214
H         7.56546552983686    0.46629130570490   -3.55929465531077
H         8.39173278265803    0.62778424503084   -1.99186139175306
C         6.81630354467030    1.96815769090407   -0.04674978184781
H         7.78082659310705    2.26562286079171   -0.42006831199243
C         6.38168565267535    2.41584539667229    1.19498148032309
O         7.10228227930910    3.20254644682207    2.02336665477749
C         8.34452754129251    3.71269531197797    1.59958188145893
H         9.07192352075682    2.91224214094323    1.43419991302454
H         8.68908774900151    4.34945251959342    2.41244814670547
H         8.24235925826030    4.31250659878302    0.69061091200770
C         5.43772204772635    1.85561976943432    4.54857333662093
C         5.00974544017009    2.06673237211629    5.85856706282298
H         4.15144198033042    2.70534930009490    6.03554273120012
C         5.66714806228630    1.46449963266895    6.91250755027751
H         5.33799012906078    1.63718931941237    7.92632657876102
C         6.74528689109786    0.62874410857113    6.66494340167997
H         7.26056687249832    0.15613590634826    7.48728931328403
C         7.15413714899821    0.39213125485726    5.36373139714833
H         7.98626408718745   -0.26943361330403    5.17267485769035
C         6.50304427813479    0.99999440127616    4.30389528177234
H         6.81962053111891    0.80690751183965    3.28976530388515
C         5.09769104031169    4.40753204056846    3.28526971107837
C         4.62923931723974    5.25452181499447    2.28387211931018
H         3.97070445181638    4.85723464426241    1.51998152500367
C         5.00872796366602    6.58257392634833    2.25887687532796
H         4.65363973834537    7.23229362020501    1.47230465601043
C         5.84254532358312    7.08118628609135    3.24790373460777
H         6.13928370128866    8.11892270545021    3.23121251057808
C         6.29209116635433    6.24680780760624    4.25791109124911
H         6.93983564658731    6.63615914198305    5.02960135402114
C         5.92193514308395    4.91341852298083    4.28220324573511
H         6.28477542676249    4.26289706820515    5.06445959948360

