65
CSD_code = BIKDUW | q = 0 | S = 0 | Stoichiometry = C25H35ClIrN3 | MND = 4
C         6.89478823118140   10.68208056274089    3.68990989363102
H         7.58888564743290   11.31027585170478    4.24820731411023
C         5.72729631405054   11.37534396248856    3.06013388401402
H         6.09121414215199   12.05525342723159    2.28174246293680
H         5.24970458605071   12.00825240343133    3.82654808147998
C         8.15933925127796    8.81122720183862    4.24005949369061
C         8.18081660186149    8.72617224253258    5.63496540829370
C         9.26909305786358    8.11529074651909    6.24082640532404
H         9.28709198822039    8.03862654577903    7.31875455321367
C        10.32317558339892    7.59621776521924    5.50503230352205
C        10.26087361771288    7.66045836659833    4.11813663033824
H        11.05920647138625    7.23129231757499    3.52897428768410
C         9.18805381068554    8.24901654546582    3.47494451383797
C         7.01992755169274    9.21512412709292    6.44766270127710
H         7.09376368387662    8.84783756830455    7.46790700009401
H         6.08655981403758    8.85625805292085    6.01231316412421
H         6.98358483015078   10.30440602097777    6.48041175829869
C        11.50559625960393    6.97079187865248    6.18060407838683
H        12.35066632610320    7.66042340678174    6.17143354373118
H        11.80986274295139    6.06356459206872    5.66232329712169
H        11.27763969918676    6.72534706977524    7.21472771957963
C         9.08847943033284    8.27206560126820    1.97630536934691
H         9.20707558382609    9.28458885901193    1.58623138668796
H         8.09706409082410    7.88498672375723    1.66121559322351
H         9.84798826706272    7.63657264918008    1.52735074801816
C         4.02407916471701   10.80942359463464    1.36814139234335
C         4.64029328890667   10.96998409401628    0.12216518223409
C         3.86564858381501   11.31656687796199   -0.97557172057869
H         4.34703434599313   11.44443984694507   -1.93551400495814
C         2.49435584197379   11.48174822475972   -0.87612080757483
C         1.89217621372623   11.26043320603135    0.35599962826367
H         0.81850861884653   11.35537334389002    0.44076238142207
C         2.63150315122558   10.92542451525120    1.47680020527875
C         6.09907389759397   10.67869511448014   -0.05565849085679
H         6.31131621151236   10.43799179710387   -1.09471397275157
H         6.36856902657601    9.81382518968026    0.56826483809106
H         6.73173060469765   11.51856943779660    0.23109244147036
C         1.66398410688207   11.84264507962108   -2.07113833501282
H         1.09499707345973   10.97595278365297   -2.40842907045606
H         2.29031177280642   12.18138954907973   -2.89262811789805
H         0.95484129782146   12.63031081184043   -1.82280941693369
C         1.94918107395306   10.66652017318532    2.78864768437189
H         0.87575794539673   10.80606090247296    2.69017542421451
H         2.31000117728113   11.34565926029050    3.56150894296364
H         2.13123960504443    9.64413941825746    3.12223075031701
C         5.14582818826558    7.23447819472259    1.12595417026561
C         3.34015822285515    6.40060631393981   -0.49347811369860
C         3.84737429371453    5.51901621935673   -1.63914073880272
H         4.57889548827924    6.05922705642400   -2.23580950910656
H         3.01871932937158    5.22801122394945   -2.27915108460012
H         4.31759510219673    4.62159496276501   -1.24408333421461
C         2.32430874428224    5.64085800491122    0.36647644586003
H         2.76634224288010    4.72572581731760    0.75268035578569
H         1.44823274187147    5.38885453937560   -0.22542798677430
H         2.02105042665245    6.25558640697079    1.21016838687540
C         2.72345578154549    7.69570992314948   -1.03662291473237
H         2.40411250140976    8.33226812887714   -0.21523149890014
H         1.86615866758694    7.46486826352650   -1.66357720284828
H         3.45325547885591    8.24726215829882   -1.62428781712853
Cl        4.54272663587895    7.66985992141512    4.10999233389615
Ir        6.11659839597368    8.23948275688408    2.38327895780167
N         7.07978970707662    9.42200259700794    3.57051164790681
N         4.79085969988607   10.42861252743649    2.48499753180037
H         4.21067808443475   10.01959010922425    3.21226392057807
N         4.43360968182526    6.74385716456427    0.32535992412649

