63
CSD_code = BIKFIM | q = 0 | S = 0 | Stoichiometry = C25H33ClN3Rh | MND = 4
C        -8.90073724824021   13.58619152092729   14.06909022363465
H        -8.29192658251680   14.26072916151891   14.66563122706808
C        -9.57199191907014   13.99633309652370   12.90689592457784
H        -9.48757586037350   14.99353971976529   12.48785067257742
C        -8.54765701716011   11.84421447160215   15.60683215381161
C        -7.18404910000042   11.55117939294417   15.68446886514010
C        -6.68090682154838   11.04452347569630   16.87112257381696
H        -5.62824112888019   10.80642722323383   16.93530063359075
C        -7.49704834680958   10.82294928710852   17.97158867789442
C        -8.85287902363757   11.09614493550082   17.86156307665943
H        -9.50440378594109   10.90519778451847   18.70286567124722
C        -9.39531782156599   11.59903338006878   16.69122897696495
C       -11.06835103948244   13.36595190510000   11.20030474061097
C       -10.45795543893808   13.19958278193904    9.95257062210349
C       -11.19898357816675   13.45028610436477    8.80956851447192
H       -10.73273443796022   13.32388105909437    7.84207396933702
C       -12.52416658497452   13.86189952494607    8.87764289732033
C       -13.11500217753223   13.99859975574558   10.12616715276604
H       -14.15030835529255   14.30307881229840   10.19428719940849
C       -12.40773658984538   13.75371796465584   11.29263433833179
C        -6.31206935459813   11.72579393458189   14.47660753604295
H        -5.36103383862433   11.21835074912503   14.61626828986687
H        -6.11358172072382   12.77958914327667   14.27752563949839
H        -6.81087146415990   11.30508205430071   13.60078475588217
C        -6.92923986250579   10.25585073204858   19.23794398289014
H        -7.53931554612495   10.53085025852137   20.09527944535937
H        -5.91263250223231   10.60819160442537   19.39953848109851
H        -6.90220306811595    9.16741035482795   19.17716424681096
C       -10.86139488094482   11.87737194544706   16.55580182205626
H       -11.05215742475007   12.95152735133912   16.52092765512935
H       -11.41561471006625   11.45088000736204   17.38769256699053
H       -11.23287512580993   11.43763003283773   15.61658972928065
C        -9.04361103617177   12.71040189100827    9.88423986064220
H        -8.34715978042490   13.48913336554181   10.19579050380656
H        -8.78803234193050   12.40270467116014    8.87368671525477
H        -8.91585617732976   11.85792134672447   10.56304147012078
C       -13.30826852846125   14.10645684581098    7.62311243111439
H       -12.69048020384930   14.59189438307770    6.87070551786205
H       -14.17575018570099   14.73053603749084    7.82278787696417
H       -13.65878858940316   13.16048348177486    7.20793526555225
C       -13.04584866420972   13.86246178307709   12.64258337703684
H       -12.81633481080686   12.96501060404389   13.22681638675495
H       -14.12379179091042   13.97013841791052   12.55654962557823
H       -12.65242610765395   14.72028840009286   13.18822301103688
C       -11.36384999401120   10.56045299050566   11.86257955604465
C       -12.89556021244502    9.63924182641671   10.01209119723431
C       -13.15089644220756    8.15156430853453   10.27067975469571
H       -12.21060870564313    7.60567166351658   10.29096272369419
H       -13.78087189972336    7.74094070103953    9.48589057472716
H       -13.64641883022003    8.01429104479031   11.22893601651929
C       -14.20487712078361   10.43408124220679   10.03646995312961
H       -14.70513609936040   10.30802642218802   10.99384186042199
H       -14.86441715052695   10.08310981368322    9.24707754355300
H       -14.00250792820301   11.49259441285606    9.88769716638446
C       -12.16322657989442    9.84734421665024    8.68246936615086
H       -11.95561752962955   10.90477731279612    8.53284639097516
H       -12.77633415811117    9.48445628790502    7.86164896923253
H       -11.22029164738590    9.30560425566065    8.68357115840208
Cl       -9.67772821431236    9.36824007540416   13.96186306614540
N        -9.10218522583649   12.34374521015928   14.41640178348029
N       -10.34781583339559   13.08119328929932   12.37089962797409
N       -12.06926919597073   10.13116534061119   11.03846630131312
Rh      -10.21907665889167   11.34917883240390   13.14352268599547

