53
CSD_code = BIKLIQ | q = 1 | S = 0 | Stoichiometry = C21H26ClN2NiP2(1+) | MND = 5
Ni        1.50721813964577    0.00042898237869    1.41574420278783
P         0.95275376028732    2.28306542232400    3.54513627751682
P         0.47431785159269   -1.35032389081654    3.01705330505346
Cl        3.30909472488691   -0.26785423788107    2.37872894865020
N         1.31882375192085    1.80139449351533    2.03675412334717
N         1.70029020146671   -1.37527027230682    0.28669883278907
C         2.20721684643662    2.80118459998886    1.40097943174933
C         1.98271370810505    4.15019613701717    2.08977132523647
C         1.89493114663008    3.84683485818941    3.58573307850517
C         1.49012808074215    1.23292109671065    4.96708799130464
C         0.50793800924529    0.15325766211329    5.42915669846803
C         0.77565337229179   -1.22100247930491    4.82320639014367
C         0.68941308093396   -2.99617685480729    2.58373430820711
C         0.46280212137369   -3.38371212544475    1.19095901230951
C         1.31982909297890   -2.53622191334685    0.18292791645488
C        -0.82140472930090    2.62137433867673    3.70050265140528
C        -1.58650656289398    2.71563850896688    2.54519618696760
C        -2.92859519112340    3.03806774543010    2.63126358965835
C        -3.50431409140474    3.27138357316919    3.86939061323997
C        -2.73678330978724    3.19779298421990    5.02216282109438
C        -1.39358530308538    2.87943829300608    4.94287986132108
C        -1.22379930957059   -0.82953519830783    2.62218802717153
C        -1.46251013903812   -0.31986773448604    1.34943818540750
C        -2.74563236545723    0.02226678370822    0.96592015410529
C        -3.79058491257534   -0.12502422597839    1.86449490877953
C        -3.55279659038545   -0.61815571224370    3.13787082594122
C        -2.27308616638832   -0.97851056254955    3.52159537336963
H         1.97255842093286    2.86270933227136    0.33427874488513
H         3.25677185785597    2.49985781202262    1.50441836711847
H         1.03817247728079    4.57914522538371    1.74622406996650
H         2.78576735914669    4.84781783804951    1.85825416107213
H         1.40256743702373    4.62904019884044    4.16173219466355
H         2.88193383568552    3.64487048009815    4.01141411146044
H         2.45000102056594    0.79288371977432    4.67610878370120
H         1.67450281833720    1.93895681272864    5.78122033914901
H         0.59021691703878    0.05330064904784    6.51434926397889
H        -0.51887896432326    0.45762722945745    5.20592137947527
H         1.82180662405617   -1.50608313287740    4.96885620102729
H         0.14456327517631   -1.97219897368903    5.30601594331814
H         1.45987668463803   -3.52585879041178    3.13148808620108
H         0.69320142468537   -4.43346264623906    1.02046200584729
H        -0.56392590414676   -3.18334896718636    0.86487878817905
H         1.52356726598469   -3.10087320669957   -0.72380542402333
H        -1.11853792857607    2.53644877855106    1.58753443727667
H        -3.52284114005984    3.11663826986340    1.73401282676026
H        -4.55106717496928    3.52361032032827    3.93778997214431
H        -3.18530697302098    3.39693733703172    5.98321099397868
H        -0.79034320539115    2.84106269010433    5.83881711761503
H        -0.62713093003003   -0.18909275746094    0.65409903544735
H        -2.93235821983163    0.40433990323681   -0.02628653529819
H        -4.79372647474171    0.14215217081976    1.57091841310216
H        -4.37029056001766   -0.73315872457970    3.83277625723838
H        -2.09722516083113   -1.38681184040717    4.50553542472872

