51
CSD_code = BIKLUC | q = 0 | S = 0 | Stoichiometry = C23H19N2O5PW | MND = 8
W         5.65332921783937    5.57215182450179    9.40488854814997
P         6.70079199257069    3.41961948938454    9.28988209183658
O         6.44689672232778    2.51184278071185   10.61840680343887
O         8.29428402336422    3.38792399929956    9.30737830879903
O         6.37867706833499    2.49981523344453    8.05324785518872
O         3.23634606988387    4.58953620794700    7.97054336051794
O         7.42213697408826    6.45886509259189    7.17621221933406
N         4.27250892478722    4.95475147108416    8.42631819299418
N         6.65690390987917    6.02684747101953    7.97949161892049
C         5.21372786548921    2.49660575713192   11.23603911778399
C         5.17822401310332    2.39708983840393   12.62115842972938
C         3.95806437806192    2.38521370646415   13.27340759972200
C         2.77860683093302    2.47854184881808   12.55185833087851
C         2.81962720135155    2.56337736002284   11.17046683366497
C         4.03578090563691    2.57301540800500   10.50581380634448
C         8.98985470151465    4.29424657882990   10.09834764644300
C         9.18955233173796    4.03103459360604   11.44510599660164
C         9.91032672548087    4.92861523965151   12.21443198360453
C        10.42639621913324    6.07980914231348   11.64199670232877
C        10.22553327527782    6.33325640938019   10.29500562401781
C         9.50034711301865    5.44537684529309    9.51640772189794
C         6.98887384859376    1.22778714620739    7.92036364730319
C         8.18256582397995    1.10913308727656    7.21945901567116
C         8.72245481084260   -0.14352748842268    7.07061059128685
C         8.12918806303029   -1.26917687866560    7.58715211893163
C         6.93431317738763   -1.13624612010739    8.28603256796214
C         6.36540888723553    0.11470705004614    8.45781876812824
C         5.60940026750538    7.65981415927409   10.43978541301563
C         4.37666896066455    7.01111129410013   10.72341948501382
C         4.65317333359713    5.86627630526449   11.51265804079585
C         6.05609607161112    5.80973198907690   11.71302490713378
C         6.64749787133433    6.91680716072656   11.05943919318497
H         6.10445509294352    2.32476547573401   13.17034312956457
H         3.93067338553572    2.30849222331368   14.34978807515744
H         1.82987661602235    2.47770862310539   13.06626437627505
H         1.90669155718518    2.62600906403370   10.59886428891056
H         4.07328054592929    2.59616462043594    9.42574761482873
H         8.78961325132950    3.12153010668749   11.86710659992649
H        10.06987033813161    4.72680718683776   13.26298696540886
H        10.98793776862331    6.77666077681558   12.24570484988376
H        10.62870656598339    7.22734002774517    9.84436623241171
H         9.34440511579999    5.62554990695237    8.46336569216133
H         8.64753259388561    1.99400622503774    6.81165871337066
H         8.57515378789700   -2.24469518864279    7.45898060555877
H         6.44759587526320   -2.00804178311041    8.70026439409292
H         5.43699337458828    0.23104650950548    8.99813197937863
H         5.71952160898474    8.63148356845121    9.97495217734970
H         3.39126579260715    7.40472521391232   10.50610826979395
H         3.91630873554234    5.25384849137712   12.01645511224501
H         6.56898536886243    5.13202859206745   12.38573522159498
H         7.67907504528559    7.22971635706230   11.15410316145555

