103
CSD_code = BIKMIS | q = 1 | S = 0 | Stoichiometry = C38H57N2O4PRh(1+) | MND = 6
Rh       10.03471445078871   16.97721061463960   20.89038803564893
P        11.24188998885076   18.47542114407941   19.70145040723897
O        10.59981028221123   19.09002004010094   18.35500423172840
O        11.74005940371653   19.78287723495991   20.52719712790733
O         8.24406416592681   24.07307618070336   17.95989784137012
O        15.42399505248019   22.90929341173456   17.87019460944858
N        10.68700847918975   15.49274350188127   19.36231070039596
N        12.59430634827961   17.72985957172341   19.04663257149087
C        10.24720826986951   18.06808461793980   22.72025306565948
H        11.06997492398455   18.77182267604731   22.61656030691946
C         9.03479623862218   18.41857796059820   22.13669777310392
H         9.01082561656540   19.36382175446006   21.59399561249064
C         7.69031194848396   17.94192669708399   22.64157850362600
H         7.74753664115999   17.82042607926810   23.72359497927489
H         6.94537732853017   18.71349412794661   22.44528742575858
C         7.22690044125098   16.63228504118071   21.97332009462702
H         6.60817596222904   16.87192991568384   21.10764285743902
H         6.60026875406350   16.06336477869708   22.66740493431237
C         8.36168549301681   15.75025638388105   21.51366590561091
H         8.09682730532052   15.10697723988058   20.67198614618080
C         9.44176523084013   15.39462540564655   22.29477284683419
H         9.99716993096768   14.49593150726318   22.02793141460376
C         9.59928265373872   15.82129429439211   23.73511802657634
H         8.61300594368754   15.95684049655452   24.17768370540104
H        10.09640371789238   15.02463891188833   24.29027340635098
C        10.43291994363491   17.10777437946132   23.86703262112179
H        11.49259692383477   16.84389425538118   23.91849096240709
H        10.18644988568091   17.62196461981803   24.80076949824203
C        12.14521323242027   15.25788243735924   19.26257546693260
H        12.39800544925108   15.02345802125572   18.22091613118597
C        12.53542496458218   14.07162359689932   20.14878232900685
H        12.28170339856829   14.31064377190283   21.18553593148594
H        11.96777303766339   13.18593957060594   19.84972327372987
C        14.02827662609359   13.77055751868744   20.05779555740371
H        14.27146865825390   12.93717332152103   20.71698084504424
H        14.27775031338562   13.47161398357255   19.03797013040896
C        14.84307858259595   14.99962932600459   20.44187390011311
H        15.90668185392308   14.79050505024817   20.32725548187366
H        14.66119715091255   15.25151697795292   21.48828771621522
C        14.45248203256662   16.17655769045503   19.55514680459130
H        14.67081875251777   15.92668922169478   18.51595298985375
H        15.03466679439028   17.05859912655762   19.81784624517475
C        12.96402691118709   16.48953789439322   19.70777995526629
H        12.74187305143272   16.63702399308030   20.77724534462671
C        10.08229277572893   15.74509371382795   18.04993802126869
H         9.00168318524424   15.83725521423489   18.14994181343688
H        10.29627985396588   14.92865519119188   17.35148316647211
H        10.47671218937966   16.66955447072999   17.63548020580868
C        13.11600375696695   17.98320920201042   17.71735547354231
H        12.59785373175328   18.83728118135931   17.28854340571563
H        12.97616100396451   17.12452210385495   17.05490743185149
H        14.17908607215839   18.22527780796687   17.76607229958050
C         9.97867020688539   20.34209424323069   18.28786050952616
C         8.62548390030557   20.46982014206482   17.93359137012266
C         8.11632026279535   21.75354175495282   17.84739619111179
H         7.08600279639032   21.92908935520665   17.59630411441877
C         8.89288079792232   22.89194019292390   18.07047696018801
C        10.23665949292715   22.73967003853829   18.36799390429212
H        10.87961246818200   23.58724143396408   18.53899309379217
C        10.78030417202493   21.46261303181965   18.47681914653273
C         7.74708854161429   19.26866809216483   17.60124277230834
C         7.59180412266321   18.36723011092993   18.83342813241537
H         7.11803183802030   18.93383192473995   19.63211963017212
H         8.55083691419453   17.98539113656483   19.19979418442392
H         6.95200095288998   17.52230489565468   18.58503293081128
C         8.37363369513189   18.51589929562394   16.41910670456077
H         8.33936091439178   19.14195915121838   15.53057103241623
H         7.81754242746168   17.60372263045183   16.21511501993329
H         9.40951466168738   18.26056220725920   16.60812040795592
C         6.32997920741405   19.67225069451599   17.17450574963644
H         6.34825177626755   20.31139546309894   16.29643031204944
H         5.80039362264892   20.17987949474901   17.97642572067551
H         5.76940223667882   18.77552566515032   16.91926602001205
C         8.96784533698986   25.26726351022186   18.15468840378110
H         8.24692152093719   26.07167873729956   18.02317482117058
H         9.76766743441884   25.37505063817294   17.41598795952951
H         9.39000175105656   25.32001106612111   19.16261292131232
C        12.64753327377364   20.67126018393855   19.92964436401951
C        12.21739849746118   21.38505261637522   18.81618345947176
C        13.11699011320044   22.16910360381371   18.09966392680840
H        12.76233064585239   22.69796068740471   17.23011747867239
C        14.43750256882141   22.24241166689060   18.51388243582611
C        14.80235833118782   21.64275426090651   19.72182685362941
H        15.81110685373238   21.81771593822372   20.05058793465938
C        13.92622801127169   20.87617512354329   20.47087432520694
C        14.28434965586882   20.43131557118384   21.88568848425274
C        14.26075533197262   18.90836650842004   22.03796124813139
H        15.02403652106520   18.46165337821432   21.40684642764516
H        13.29368658587033   18.49772263447778   21.76851189781705
H        14.47354642979133   18.64012304160368   23.07056345695838
C        15.67442214436038   20.91185247420854   22.31485931641556
H        16.45429301786674   20.47636718538678   21.69517247022422
H        15.85414376208265   20.60336756374788   23.34228518607841
H        15.74772138360562   21.99501769883283   22.27492581883307
C        13.25728915549354   21.07092978165014   22.83389459553383
H        12.24473948312945   20.76772643058002   22.58497078198624
H        13.31332493956892   22.15486803423560   22.76627110605200
H        13.46551052066044   20.77996141080470   23.86092578101611
C        15.11580823294353   23.58944716844212   16.67484515625015
H        16.05365592776277   24.02367327680908   16.33399253463229
H        14.38934064592068   24.38978863033187   16.84564886861299
H        14.73394426244140   22.90543597061219   15.91079720747890
H        10.28142794871610   14.61508102244918   19.69617533828612

