33
CSD_code = BIKMEO | q = 0 | S = 0 | Stoichiometry = C13H16MoO3 | MND = 9
Mo        5.80648845616943    3.55931864837212    8.48776690319930
O         7.40525649569163    4.69950550915052   10.86290755718987
O         7.52922803653795    5.88447247079273    7.41493943899507
O         8.05073606602164    2.31770298216176    6.77965517203802
C         6.82050317502638    4.26132010749776    9.97933236515120
C         6.86266645295739    5.03176871438732    7.80334528188418
C         7.22706866332466    2.78019028607091    7.42995902337430
C         6.61489197315921    1.76842042621445    9.65210265681406
C         3.70491741217252    3.53526949442433    9.41111110991126
C         3.78289324350404    4.62459798738497    8.50734416639269
C         3.97847569972701    4.08325759766307    7.19738373167852
C         4.00985220750421    2.66317412175333    7.30627597570631
C         3.82523189459325    2.32326798065158    8.67430866735381
C         3.45601619087179    6.05202751441153    8.83384750955124
C         3.89166557870442    4.86104806745243    5.91719790672462
C         3.95968119200511    1.69564930095245    6.15904341710499
C         3.48934092489167    0.95958797231161    9.19966987133459
H         6.43268597422857    0.85508212791595    9.08778765779956
H         7.67400036569016    1.77909905742002    9.90175432898639
H         6.06682958218583    1.70262640249623   10.59085424338667
H         3.38742872129012    3.60227059573742   10.44619544488746
H         4.08496837599369    6.74664758599855    8.27818665193883
H         2.41420613074657    6.26121035286973    8.57854490406877
H         3.59213449921428    6.24142689092241    9.89764843537932
H         4.24659694195734    5.88141380535451    6.05306511113081
H         4.48167934562394    4.39591064238257    5.12903818500005
H         2.85230059826181    4.90485262444428    5.58217367179880
H         4.37990329540596    0.73097810449887    6.43909182642666
H         2.92182057515177    1.53797106595929    5.85461178644752
H         4.51101840096566    2.07108852860472    5.29869207551891
H         3.61199306680885    0.91710650138381   10.28054262740608
H         2.44596669948752    0.73275779051972    8.96569285538444
H         4.10745376412527    0.18407874183904    8.75012944003636

