45
CSD_code = BIKSUK | q = 0 | S = 0 | Stoichiometry = C12H14Cl2F12N2O2Ti | MND = 6
Ti        9.01244932958669    8.81437159414621    2.95885637789114
Cl        7.96052695955434    8.56009812951294    1.08172930134443
O         9.85344902924339    7.32359564508796    3.40752473381771
C        10.64999179172414    6.60992535197435    2.58370036171436
Cl        7.35855024736674    8.27141245609744    4.24879512163290
C        11.67703530387279    7.56269306195315    1.88515942361607
H        12.62994579080901    7.49568325269826    2.42320343601201
H        11.84814102237084    7.24584348220893    0.85358431852626
N        11.13725131536217    8.92157375451024    1.94074943516092
C        11.02282103655783    9.51289264350510    0.60417131646033
H        10.50118620840902   10.46774899860034    0.67977842703766
H        10.42763944444721    8.86014787696968   -0.03376034217666
H        12.01245811664656    9.67085022238614    0.15670756786990
C        11.92774918884153    9.78928335908365    2.82113030517205
H        11.64770243361798   10.82030967495064    2.60233561175246
H        13.00338284353330    9.68182935506213    2.60635650023364
C        11.69428326452675    9.49257508826101    4.30601386322741
H        11.93254704575787    8.44928362731270    4.51583601485896
H        12.37876595601622   10.11852694449481    4.90127946769814
N        10.30320069812844    9.71780779177108    4.71451902805986
C        10.01303150511143    9.00853168088856    5.96427281092720
H        10.13905182906250    7.93706553556540    5.80406085661863
H         8.97555765257412    9.18079585478077    6.24920042986470
H        10.68104776382438    9.33935741203237    6.76979937087664
C         9.98806526056186   11.14299885971627    4.81676406259416
H        10.88619582476790   11.75551304709840    4.67487047867798
H         9.56348176160618   11.38658901594527    5.79363331516770
O         9.04584910215288   10.56434617834720    2.70079070104332
C         8.97083049569668   11.49150859655795    3.67913033286883
F        12.35532601964395    4.91131453162561    2.74276069566471
C        11.40135320054400    5.55107053476730    3.43096674461468
F        12.02994961426725    6.16379863081531    4.45044855177257
C         9.74163605645614    5.85548935362803    1.55728036902637
F        10.59595992313957    4.64503695700467    3.96444608774863
F        10.10697032257951    4.58573216256047    1.35251607425174
F         8.48527523876911    5.85057470085057    2.00183924640052
F         9.75435345565144    6.43812920565035    0.35231661238946
F        10.49772386229670   12.79388306010108    2.43068351888944
C         9.31456190381557   12.87338047302102    3.06611194041286
F         8.42536819251549   13.28271327136002    2.17406293371754
C         7.49446781686852   11.54147842522553    4.19380617926640
F         9.45665616549170   13.83408345861489    3.98803461481894
F         6.69839468387143   10.94537115454756    3.30697868486057
F         7.35095870826464   10.91574110699279    5.36827683284795
F         7.03675661409411   12.78334448171594    4.38387828476886

