73
CSD_code = BIKTIB | q = 0 | S = 0 | Stoichiometry = C32H28N6O6Zn | MND = 6
Zn        5.02102834296204    5.22421035812611    8.73496155135876
O         4.86432556712386    4.07109467964568   10.33466692148352
O         6.12351531451554    6.66079831153711   10.15997218666842
H         6.19832549113863    6.09135197512850   10.93294836675917
H         5.62911850971099    7.44308387979466   10.41966075841809
O        -5.43304438685965    4.63284398148522   15.91987870551050
N         3.19175296110779    5.89255624930728    9.32220364282975
N        -0.15148786001292    4.69302829389535   12.52878095806361
N        -0.50872255783717    3.94535019085558   13.50986792730996
C         2.39417650644690    6.79149272485772    8.79309392529541
H         2.79547862725089    7.35391347680183    7.96269968762493
C         1.09889460841467    7.01370078058832    9.27392547716423
H         0.47898814386573    7.76271525553568    8.80621566341275
C         0.63993051493342    6.27062440247814   10.33269776229208
H        -0.35130536234117    6.40259939762429   10.73751117017780
C         1.47580546627497    5.30093429234032   10.91417401258212
C         1.09487421150225    4.48330712256190   12.01652925282270
C         2.01721570828379    3.54620646698523   12.49668713529265
H         1.70791291272546    2.93414786042144   13.33141461178921
C         3.27116716890833    3.39190798315631   11.94767154483656
H         3.95388152308513    2.65506391390159   12.34421348724107
C         3.70039387049825    4.17338090578078   10.86324176990885
C         2.76492776299480    5.14556952965172   10.35504620960509
C        -1.75448537271667    4.19000222858117   14.03828682123547
C        -2.58985020097370    5.25167750778202   13.66945667755901
H        -2.24955938804087    5.93313292607001   12.90467067489815
C        -3.81646033797614    5.43240071535583   14.27110204795348
H        -4.43446778110501    6.26318014579091   13.96561405436615
C        -4.24482542761075    4.54989224270510   15.26149711900144
C        -3.41588388079016    3.48758415301669   15.63711010672212
H        -3.76576092903524    2.81734996394431   16.40670021203295
C        -2.19219387890015    3.31183444620741   15.03982463421860
H        -1.54918580656747    2.49412210235146   15.32582375444806
C        -6.31963237096091    5.67279131297183   15.58768983377584
H        -6.63135953256739    5.61678122394373   14.53967390828086
H        -5.87904805460558    6.65580775527840   15.78401548908722
H        -7.18914308288754    5.53501074424512   16.22871860782455
O         5.17774812274063    6.37736154656585    7.13529263676083
O         3.91851108463064    3.78762413367820    7.30995762961684
H         3.84344717807650    4.35697356997801    6.53706683370074
H         4.41324783929541    3.00541063225604    7.05016233952285
O        15.47469897760591    5.81487060078635    1.54938457818218
N         6.85029066851410    4.55585221679866    8.14771031579317
N        10.19345123201117    5.75518163141666    4.94098357752042
N        10.55067043352772    6.50281150597368    3.95985440340599
C         7.64785596273080    3.65691746407515    8.67683241161342
H         7.24655905891792    3.09453688933469    9.50725556057541
C         8.94311658566440    3.43465669607661    8.19596349561243
H         9.56301253009839    2.68563036815293    8.66366770065358
C         9.40206481119942    4.17768853832316    7.13715336520069
H        10.39327568981684    4.04565653400627    6.73229819541554
C         8.56620884012142    5.14740421034947    6.55568944770744
C         8.94712771450336    5.96498721105059    5.45329869380886
C         8.02479738502938    6.90210429967938    4.97314745491881
H         8.33408688342182    7.51412010027036    4.13838484087691
C         6.77087539253564    7.05646478831368    5.52221315609875
H         6.08816976568899    7.79332269853118    5.12567996057565
C         6.34165973195366    6.27502638548664    6.60667249004429
C         7.27710861056021    5.30281989278962    7.11485245871692
C        11.79636944101809    6.25805231673257    3.43133658426301
C        12.63169792662192    5.19633488706124    3.80013236117249
H        12.29143104670394    4.51493885978988    4.56498134242327
C        13.85823427821939    5.01550378153892    3.19837143710808
H        14.47622053993364    4.18469796370822    3.50383110914189
C        14.28655594798963    5.89793823784649    2.20789092672727
C        13.45765277884189    6.96029046347212    1.83231631528002
H        13.80750285849221    7.63046324237428    1.06266007807585
C        12.23403695822797    7.13615065926067    2.42971792108215
H        11.59104975278510    7.95389051100980    2.14375298047635
C        16.36123604880211    4.77485937553802    1.88150695666887
H        16.67309365576714    4.83088577408645    2.92948769653938
H        15.92055022943480    3.79187638288171    1.68527080931697
H        17.23068703855481    4.91254613011745    1.24037526556240

