79
CSD_code = BIKTEX | q = 0 | S = 0 | Stoichiometry = C34H32N6O6Zn | MND = 6
Zn       14.48104913805421   -0.00005585444746    8.69559220237944
O        14.27604837072174    1.12901051928363   10.30752113906534
O         3.75918458656826    0.52212993323086   15.46114771281441
O        15.55306555714861   -1.44833930822833   10.13555302709308
H        15.60868469344607   -0.87833458798269   10.90984767753219
H        15.04980717373810   -2.22872244065243   10.38342961154735
N        12.64026854968419   -0.68343443320731    9.22119528385175
N         9.19100690587441    0.47672818752398   12.32606731563093
N         8.79773031404882    1.20912913304835   13.30502030207491
C        11.86211099473749   -1.57826223509094    8.65725746952784
H        12.29079466645588   -2.12965808686181    7.83319051497044
C        10.55370262904131   -1.81034484243051    9.09590371126279
H         9.95125233578558   -2.55634683894667    8.60131564685223
C        10.05997895577752   -1.08043659806983   10.14815317589864
H         9.05727532055086   -1.21983647917312   10.52092323112517
C        10.87417156322199   -0.11453900075794   10.76552422009359
C        10.45556149971891    0.69085162658478   11.86314476110991
C        11.36015340342917    1.62332816177513   12.38411699324122
H        11.02276396346494    2.22557731516015   13.21511974540007
C        12.63119144298848    1.78528268522810   11.87798293159869
H        13.29955793381485    2.51827314251717   12.30503565395830
C        13.09630247453862    1.01789293017723   10.79838030655174
C        12.17978159924845    0.05013422293062   10.24921752035229
C         7.52712696727884    0.96480914159133   13.77102185384991
C         6.68973483934591   -0.06298846299953   13.31985562150121
H         7.05200904483880   -0.71808048330293   12.54221418664783
C         5.43330818143494   -0.24316699851956   13.85601027740234
H         4.81441316081622   -1.04698511367855   13.48664233590716
C         4.97503142088910    0.60582673273646   14.86309918299549
C         5.80663161278538    1.63435721189895   15.32029915858443
H         5.43402415735244    2.27956353257146   16.10064352304918
C         7.05948520586041    1.80994511101789   14.78726607744174
H         7.70360094779769    2.60184092897830   15.13664352091755
C         2.85612183733278   -0.48608649270303   15.05338831118151
H         3.29948527128101   -1.47857702982276   15.21623804970490
H         2.62457750305028   -0.37583007310578   13.98464620960011
C         1.59047616857419   -0.33470172819382   15.88263869829697
H         0.86817671475518   -1.09439606765067   15.59787144777086
H         1.15773704335187    0.64888975261806   15.72198236011232
H         1.82458281779619   -0.44105814810343   16.93825672280703
O        14.68589283693478   -1.12897852930895    7.08352820697531
O        25.20268262553164   -0.52202517826299    1.92972501272986
O        13.40904081247998    1.44825337824021    7.25553016557502
H        13.35291510787607    0.87808912832277    6.48128430957907
H        13.91248932622344    2.22843466253266    7.00744244497852
N        16.32169920475536    0.68345624160338    8.16978364853602
N        19.77093917851106   -0.47680160070463    5.06494816045215
N        20.16420112388450   -1.20916937151791    4.08596411175003
C        17.09983455031391    1.57835111508672    8.73363889409675
H        16.67132756692106    2.12940364472060    9.55804241232384
C        18.40830736323495    1.81027323664948    8.29511544823040
H        19.01081848475587    2.55617437807730    8.78978281205063
C        18.90206175451676    1.08024962578392    7.24296708419871
H        19.90469057113411    1.21979827793021    6.87003420797506
C        18.08781367509313    0.11443561158796    6.62553978497191
C        18.50635855092699   -0.69087002116260    5.52782653223052
C        17.60172074668758   -1.62327776611475    5.00681339633183
H        17.93916283821341   -2.22569578311003    4.17596142857865
C        16.33070834388759   -1.78526435354711    5.51301694587773
H        15.66234104792037   -2.51827268231827    5.08599748081975
C        15.86566909736491   -1.01796435462420    6.59271777789118
C        16.78219556355304   -0.05018613359163    7.14183113771417
C        21.43478153907918   -0.96479665068256    3.61992215311275
C        22.27215230416780    0.06302743019004    4.07107001023544
H        21.90987557640350    0.71811000041656    4.84871830132314
C        23.52856493465183    0.24324118928416    3.53489174096645
H        24.14744781990777    1.04707099266066    3.90425474020025
C        23.98684624434499   -0.60574006883780    2.52779334681756
C        23.15527778374422   -1.63431217840745    2.07063038173516
H        23.52788638296112   -2.27950251676385    1.29027364771150
C        21.90243753119610   -1.80993355192280    2.60368410321057
H        21.25833316956184   -2.60183546513864    2.25430280283147
C        26.10572908098759    0.48621833142242    2.33745001565848
H        25.66232684296955    1.47869799410079    2.17463492895830
H        26.33732599526137    0.37595273282464    3.40617862796404
C        27.37134529505644    0.33487379959138    1.50815010236133
H        28.09363277806242    1.09459473063044    1.79288138378683
H        27.80412628120846   -0.64870775559622    1.66876487367525
H        27.13717310312191    0.44123849501924    0.45254974388036

