71
CSD_code = BIKTAR | q = 0 | S = 0 | Stoichiometry = C26H28F12N2O2Zr | MND = 6
Zr       10.48050569034711    1.96328559136814    9.85390616163432
O        10.16340858652736    0.33120170437477   10.91639597473417
C         9.34830290059676   -0.67272181754375   10.55039242142391
C         7.94632613496209   -0.20902545740725   10.00749606435448
H         7.72194962776494   -0.74581547504399    9.08141396113625
H         7.16919787855339   -0.47160427548241   10.73860492680685
N         7.99947322511509    1.22996330562190    9.78551879846144
C         7.48282378371405    1.91079239478557   10.97826513493606
H         6.41082038967130    1.70763720158409   11.11343082837317
H         7.63967744845884    2.98515237802485   10.88775894011627
H         8.02760413140107    1.56039179902923   11.85661756774196
C         7.26907376123913    1.65436970443259    8.59048233106968
H         7.03382618723541    2.71199736412283    8.71496477502134
H         6.31608557077115    1.11052460994371    8.48999796499080
C         8.07517941821526    1.46071550114947    7.30127485468261
H         8.32483254692567    0.40600420574011    7.17436221036842
H         7.43248101287683    1.74840256257991    6.45115007385318
C        10.17000054269585    1.75486877172182    6.17359982992257
H         9.65524364510502    1.85370583629826    5.20751814979982
H        10.42949617989373    0.70982078435141    6.32626861458304
H        11.09158862460066    2.33289462016347    6.14135402073399
N         9.32990868974245    2.22707206880279    7.27812352808311
C         9.06586516272194    3.66278323586552    7.13058004188686
H         8.01283414339827    3.84727851958055    6.88706482768055
H         9.66795963603318    4.09439575621054    6.32618027135174
O         9.36843437426630    3.59162709661868    9.53894551162599
C         9.40108148632046    4.40115842012849    8.47193932884135
C        11.42345431203480    2.97480257334338   11.62276948452362
H        12.16529660911835    2.30665310231472   12.07124304746183
H        11.88105952754346    3.92573169112217   11.32882500399013
C        10.27560372957285    3.15523997567884   12.50822941885196
C         9.90892493319307    2.14646030317968   13.41758184173143
H        10.50880732198141    1.24493391604434   13.46448410777171
C         8.81564048166572    2.29450956546058   14.24890567894036
H         8.55726905094987    1.50469660471468   14.94023937101562
C         8.05370287952827    3.45396597349701   14.20833584705038
H         7.20289542465010    3.57063420191623   14.86296914653992
C         8.41198417619767    4.47073337398007   13.33566979307665
H         7.83928644798663    5.38755560543471   13.31573737106512
C         9.50715774712258    4.33130071676074   12.50493182211323
H         9.79356139183591    5.14601799324740   11.85223552547613
C        12.36020806842606    1.25685852683309    8.81803524415111
H        12.32802005480671    0.17917701628494    8.62778003485144
H        12.61102092700724    1.75694124873421    7.87432042805910
C        13.40826356332544    1.51937849693615    9.82132286609454
C        13.67820646478675    0.58647311944348   10.83584662213354
H        13.11304251499270   -0.33751456330537   10.86621016066966
C        14.64419411028061    0.82865248080948   11.79222476562728
H        14.83311237041216    0.09266135448506   12.56094831251628
C        15.37717623322651    2.00607153775803   11.76980450363485
H        16.13226684938630    2.19334806971562   12.51845572107485
C        15.13664324740882    2.93356974370396   10.76964977963751
H        15.71246980592553    3.84786184171598   10.73520237242137
C        14.17414639996983    2.69365716915051    9.80700097136069
H        14.01845662096849    3.42029053230765    9.01886980777574
C         9.14721379844861   -1.63368715171437   11.74468296758713
C        10.04252873022766   -1.41568508739546    9.38950094486439
C         8.40696131854798    5.57662526559868    8.65448096996963
C        10.83386511259168    4.97044599218834    8.39289372979215
F         8.56426294159620   -0.98918367282207   12.75801658765039
F        10.28975616640785   -2.14251979686599   12.19308721839707
F         8.34403475605300   -2.67208012251821   11.44288648964297
F        11.28796134241720   -1.77825061673969    9.65042305513816
F         9.40338548265119   -2.47588616525384    8.88626841884707
F        10.11391498469288   -0.50806095291864    8.35838597255548
F         7.17237170659272    5.10048838363476    8.87137697679284
F         8.32174030165042    6.35379603310818    7.56079915663615
F         8.70645137372046    6.36829536562175    9.67682630783762
F        11.08384118487656    5.83784574847219    7.40994653310458
F        11.66664564962186    3.90721782683517    8.18868712080746
F        11.22921310644128    5.51470037247749    9.53800138654917

