69
CSD_code = BIKYOK | q = 0 | S = 0 | Stoichiometry = C24H38O5SiW | MND = 10
W         2.19635697986914    1.01630009560732    2.70188324136983
Si        0.83051489014980   -3.70228816848200    3.11765372126372
C         0.87381749704778    2.38870182404927    2.23808015405512
C         0.50601734157090    0.19128560781402    2.09555483271338
C         2.19028832718370    2.16699444122047    4.66887492426263
C         1.21351658506396    1.12623987733939    4.74176463226361
C         1.79105971993419   -0.17266236932752    4.59306001063664
C        -0.24838078828380    1.39282700551761    4.81889291479705
C        -0.63237779714872    2.72920964616444    5.43022595882235
C        -2.03506843838330    2.68090688124736    6.03830759534762
C        -2.73840323601900    4.05231196232526    6.09305627083974
C        -1.88353348364483    5.09193916116754    6.81472953842609
C        -3.14418036820733    4.53230876432173    4.70293719683090
C         0.99431721019964   -1.45118388709061    4.62352379539053
C         1.10404189976630   -2.10609575544642    5.99960758467821
C        -1.06181232862874   -3.52937509159007    2.97579182604134
C         1.24202070455884   -5.13759291713675    4.31698673572037
C         1.64414636531876   -4.04108628595157    1.40918915096270
C         3.16849732494489   -4.01582362834514    1.52868363208137
C         1.22468048707087   -5.41468954654722    0.88721927090994
C         1.19670086525906   -2.98951283403950    0.39295802959872
C         4.23194702029117   -0.20683790718426    2.55437117058068
C         3.63974347025016   -0.18182533433019    1.27755166996079
C         3.55789077057446    1.17577719761474    0.84841027014701
C         4.11873510011456    1.98184750166956    1.88067115897901
C         4.51848204381850    1.12390069522431    2.93330393672306
O         0.06398711131776    3.16132099485086    1.94945584936613
O        -0.48362943310905   -0.19287486279204    1.65794306842180
O        -1.08873681161722    0.60447790199764    4.43797174552963
O        -1.87131779426557    2.14243909703635    7.34017686084845
O         1.51105166108845   -2.29044659299256    3.60320666594898
H        -2.74103042556676    1.99242502653319    7.72467311372775
H         3.12254122399388    1.99923094053598    5.20683331228611
H         1.85358837610224    3.19559664469717    4.73808282463968
H         2.77071456441764   -0.30055077555225    5.06676083370157
H         0.07462545194632    3.00346997454122    6.21131373481473
H        -0.59621941488170    3.46778174947278    4.62779864073741
H        -2.64683064391766    1.99829612519554    5.42890688972560
H        -3.65552004706120    3.90314380119417    6.67913846584853
H        -1.51505662252382    4.68375189765110    7.75296799045743
H        -1.03346396566874    5.38495615677403    6.20406677447050
H        -2.47179300722934    5.98109229275167    7.02934197977137
H        -3.74834279700338    3.78160790428385    4.19917777577039
H        -3.72489220309760    5.44852249427454    4.78092899575462
H        -2.27298364048411    4.73657820390136    4.08554142176454
H        -0.05795864847130   -1.25132071560608    4.40587737597860
H         0.45012926180412   -2.96990700360159    6.05402561702284
H         2.12662436730657   -2.42962593726240    6.18008635865618
H         0.80997648364566   -1.39148236089388    6.76413520410554
H        -1.32372826265589   -2.61299118150281    2.45462356284466
H        -1.51699221193325   -4.35725878112089    2.44234112576488
H        -1.52435715733197   -3.48449345171587    3.95790807435956
H         2.27618653827305   -5.09517275567322    4.64653185193484
H         0.61720303108189   -5.12054278279870    5.20483651698152
H         1.08922548371458   -6.10093585302821    3.84274885781006
H         3.63566071725285   -4.14084939852031    0.55114867383791
H         3.49878014926397   -3.07435635930008    1.95598157666655
H         3.51267428828122   -4.82117043074158    2.17351218890702
H         1.65441003778149   -5.59336945315983   -0.09835700742512
H         1.56550721574720   -6.20491141899460    1.55095136289723
H         0.14336802169217   -5.48360685343584    0.80257525861325
H         1.71931462500069   -3.12246367113156   -0.55557330196508
H         0.12915836705962   -3.07224816138095    0.20519090667959
H         1.39262126806085   -1.98662280473120    0.76446703368228
H         4.52018833716831   -1.09560268079807    3.09735231050471
H         3.42774169644690   -1.04292548314632    0.66042472490932
H         3.32430785223378    1.50532234911486   -0.15821177498908
H         4.34027838567722    3.03795742553648    1.80494321334186
H         5.10947040714726    1.41868185417907    3.79080412190587

