37
CSD_code = BIKYEZ | q = 0 | S = 0 | Stoichiometry = C14H18O4W | MND = 10
W         3.62968693089923   23.15316962177785    9.23552827685678
C         3.24906786402466   21.31370899107649    8.69420705212937
C         3.04099700137996   23.03609921447234    7.36153331644961
C         5.53491577531006   24.00973144083125    8.29088493320326
C         5.76879663266958   22.64496812488323    8.59563129870493
C         5.63971981393539   22.31951858693616    9.96939261589794
C         5.77909069543987   20.93032818710832   10.55245619571353
C         7.13227649840077   20.75292415922519   11.24092484983835
C         6.07224808598832   21.66483531666190    7.48012713156991
C         7.55553741296959   21.78156942919822    7.10296515397834
C         2.24227768091015   23.25904091745820   11.12246464911536
C         1.65299415692086   23.99170642959447   10.05120007638036
C         2.50681206440916   25.09988292462857    9.77313039689157
C         3.61228818227920   25.02757099718728   10.64751853736391
C         3.44315387448080   23.89980954605841   11.48277260714564
O         2.97084153770273   20.25421324893422    8.31580639785756
O         2.51787789105775   22.95151181496255    6.34120266865107
O         4.77719750268328   20.72437466573693   11.53918770862572
O         5.23585955406050   21.99557516756419    6.39064389013535
H         5.92308620353136   24.75691294336157    8.98047644628200
H         5.60409935450322   24.29802767298292    7.24886042455790
H         6.00697787849566   23.07752342300156   10.66796647656029
H         5.67300227110416   20.16425399368834    9.77037217588810
H         7.20838057503651   19.74818416338316   11.64647725152691
H         7.93760704740401   20.91798273544635   10.53082526926900
H         7.22190574962677   21.46119901582690   12.06013934878502
H         5.86857329006278   20.63271301801680    7.80366001772370
H         7.79981205475985   21.07862163442284    6.30924070245947
H         7.76673190524288   22.78998901939078    6.75708007558668
H         8.17676124570068   21.56441595649909    7.96701157456573
H         1.77674915813047   22.44069834545798   11.65556272051698
H         0.64267138981923   23.86173613314884    9.67896356905005
H         2.27371499934703   25.92131873974130    9.10914816615321
H         4.36588527002746   25.79392400831836   10.77263809968566
H         4.05914069917289   23.63757275536072   12.33120948508692
H         3.92332575167388   20.65429015196016   11.09350158736404
H         5.32653600083896   21.32639750569604    5.70278885243005

