103
CSD_code = BIKYEA | q = 0 | S = 0 | Stoichiometry = C40H58Cl2MoN2 | MND = 5
Mo        3.94357822384934   13.87676643474871   14.97070936506665
Cl        6.05772707447176   14.41837496384785   15.92053490030490
Cl        5.03016435417174   11.76628440927685   14.55346836533425
N         3.03419071184529   14.10866540465233   16.43136429059997
N         2.61963975112134   13.23143553470389   13.60237779745547
C         2.43535923554590   14.34133822052389   17.61476694632780
C         2.63116781714281   15.57199585586350   18.28812812584703
C         1.95345432430988   15.81217870149863   19.47110639100997
H         2.10504929053534   16.74801615459587   19.98723051804019
C         1.09633151333538   14.87289794838452   20.01158775312118
H         0.56740411950616   15.08312017808779   20.92939353273194
C         0.95070927025766   13.64465044180318   19.39121166237736
H         0.31845205727626   12.89887570852213   19.84635536504960
C         1.61207283456442   13.35592784420083   18.21181602595981
C         3.97639446243481   15.53822634617664   13.87232792408511
C         3.89224944920868   17.01001674517171   14.13033028392271
H         4.87517249864171   17.39095222244067   14.43595525220577
H         3.22053896224611   17.14709537663446   14.97915928750491
C         3.34694600819869   17.88687618120611   12.99028102406557
H         2.48441397178553   17.39173349495633   12.53755127009780
H         2.98490517291703   18.81116222896328   13.44818803435412
C         4.33788677165890   18.27532402820767   11.89323100724858
H         3.90405411713752   19.12053868488930   11.35322497952210
H         5.26639487261016   18.62906431546241   12.34521858788013
C         4.63750370487169   17.15971698433572   10.88695055889539
H         4.67371853009609   17.58387513138493    9.88035594008594
H         3.81882443211811   16.43672425454335   10.90237927863928
C         5.96141004210739   16.43704229561725   11.12489301621024
H         6.77905218527889   17.16055283435004   11.07910304210561
H         6.11408531725550   15.73673518798918   10.30001984504147
C         6.04289445082918   15.70785121421369   12.47274650847006
H         6.88936452973047   15.01695151799111   12.46170529380329
H         6.25515702006687   16.44086173998828   13.25251956691615
C         4.78376058103225   14.95977615837699   12.87830420058581
C         4.45752902961819   13.73228391557647   12.24488354723878
C         5.52733379318861   13.06064733762474   11.39789163917250
H         6.10875523235130   13.79120570311846   10.83788341293664
H         6.20870763788519   12.60562243534186   12.13089268840599
C         5.12363084129241   11.95481402347690   10.42705567142512
H         4.51066491638589   11.21720354994089   10.94067619385188
H         6.03993247423193   11.43203762230297   10.13872815393300
C         4.46207171085412   12.47478543811527    9.14064981526405
H         5.25525088727510   12.72609364613092    8.43170220843396
H         3.86741289728882   11.67928227513229    8.68648031517168
C         3.60162729610553   13.72592302542987    9.31253555817670
H         3.39405584664974   14.14028514735162    8.32232086912286
H         4.16780383204280   14.47729348695889    9.85755353816646
C         2.26533574995913   13.49441154934375   10.01080907352593
H         1.57675805953202   13.01070093153253    9.31288072876349
H         1.83450611542630   14.46433354093270   10.27462248215936
C         2.32061133439360   12.61108819802032   11.25954122711655
H         1.29767545065860   12.51914000351209   11.63812362922029
H         2.63625667050525   11.61198455709676   10.96713475335157
C         3.15519312178187   13.15186003959028   12.39686107402379
C         1.30772723022721   12.77365103674741   13.88857327294864
C         0.29715343242288   13.72024707041724   14.11846467122121
C        -0.95263871831691   13.28238102753659   14.53328654786574
H        -1.73159903398163   14.00411341763887   14.72400408531873
C        -1.21844909635929   11.93738599529825   14.69546915590652
H        -2.19308111865673   11.61112722954484   15.02609486940262
C        -0.23880158003456   11.00918860151173   14.40450664915387
H        -0.46382768142312    9.95794133493261   14.49545384461010
C         1.02850589695290   11.39841499263648   13.99085705177053
C         3.63534259270071   16.57138359948054   17.77354596965744
H         3.94899134475245   16.24642551282374   16.77433594713866
C         4.87792508201946   16.55105878043167   18.66892926153101
H         4.62263094995290   16.80532959312979   19.69550971338754
H         5.61360789949887   17.26364148361081   18.30320678613218
H         5.32594490589602   15.56025270593053   18.65469264269374
C         3.05441128853960   17.98354760307624   17.68214002545348
H         2.86633400959164   18.39363489634075   18.67119293488688
H         2.11671205783193   17.97771639439090   17.13039794548252
H         3.75570145796131   18.64195921082845   17.17410863731159
C         1.57341334895279   11.97782603550372   17.60249544131791
H         1.69846251828676   12.08319815632338   16.51647369908390
C         2.77582921843634   11.20367251998473   18.16144927507289
H         3.70583544732195   11.66387845091850   17.82451355704210
H         2.75617505114824   10.16778600071872   17.83143486285646
H         2.75788100045708   11.21914122877365   19.24987257948492
C         0.27521147080299   11.22013281174939   17.86622995675414
H         0.20006179827786   10.91875847757664   18.90833682424837
H         0.24691876509872   10.32137314609760   17.25520849331217
H        -0.58441809258720   11.83480345185047   17.61018930774772
C         0.51915407555113   15.19160188552215   13.85437271302850
H         1.55641185713437   15.33345470038619   13.52792945667702
C         0.31473007297986   16.02006736671415   15.12264416044050
H         0.49695267559754   17.07158563665953   14.91237663226335
H         1.00725403874466   15.68821497711574   15.89294643928379
H        -0.69924185745946   15.91728812406939   15.50012468910462
C        -0.40592123683680   15.67162452584892   12.73118735142834
H        -0.26331338009135   15.07233027377614   11.83388777969170
H        -0.19344280015865   16.71114890620715   12.49051533588247
H        -1.44934925767757   15.59803673771107   13.02638397419104
C         2.03887000231464   10.32769739696431   13.64062941266010
H         2.95099078709375   10.79919676280074   13.26534072292979
C         2.43522390924730    9.51198994709464   14.87171699724716
H         2.96078540696733   10.14678745162212   15.57854060871144
H         3.10343321990281    8.70556160319292   14.57774991060945
H         1.56379955735924    9.08061609729760   15.35894669772923
C         1.48559068623442    9.39738409941827   12.55448372296005
H         2.28080826760494    8.75947779311174   12.17451324333167
H         1.06528075034093    9.96119229020407   11.72446168511899
H         0.70468122381549    8.75587148789103   12.95515193792316

