81
CSD_code = BILGOT | q = 0 | S = 0 | Stoichiometry = C31H39BN7RhS2 | MND = 6
Rh        1.92432791368056    7.71195747414596    4.77061440938339
S         3.14413347909809    7.34356315114451    2.74037015865372
S         0.74404102739378    9.62668898420273    3.95545582769246
N         1.76785279076007    7.96379546711135    7.74614740617426
N         0.95895312666092    7.95883347186323    6.67321813350189
N         3.32657904779005    6.21882347900189    6.96214906855686
N         2.85264863700810    6.03230643856796    5.72040964725203
N         3.90812328305381    8.62287743032709    6.67295822661423
N         3.37518540637717    8.91115802222609    5.46801839944308
N         0.54940431606966    6.63122954408752    4.10607228928325
C        -0.28542507433975    8.18073163788613    7.08642046115849
C        -0.27228924212994    8.34486708231076    8.47381588565011
C         1.04756083126928    8.20110522199242    8.85673005008526
C        -1.47667518055924    8.19802240963892    6.19791926297357
C         1.62800493560237    8.28736943225779   10.22205745787171
C         2.99728560009106    4.74777930960710    5.40307988507477
C         3.59201619047827    4.08883666455133    6.48258886872782
C         3.78439273722871    5.05386966921955    7.45362316123854
C         2.58799898182404    4.15328809797169    4.10339281179723
C         4.37974171211101    4.90168197547425    8.80639548801001
C         4.05852842245884    9.92995627454626    4.94485602468654
C         5.07357386377888   10.28738612431914    5.83599826471832
C         4.94867265775094    9.44024117360853    6.91648709131743
C         3.77267892588253   10.61531205320899    3.65804745849078
C         5.78524155088059    9.38031819466359    8.14337610949760
C         4.85116048976316    7.63702564735667    3.02570539297959
C         5.53340265276959    7.15437069918674    4.13601708582986
C         6.87349311842819    7.43923314855750    4.30761274291802
C         7.57727186741246    8.17979190404079    3.36722683135807
C         6.89944020604212    8.61951376226995    2.23573401458976
C         5.55576411478403    8.35879924475763    2.06523293747451
C         9.02464831502015    8.51408062219177    3.57056618836835
C        -0.34801957830336    9.18688294009829    2.65437038144505
C        -1.64889377874953    9.68675407318767    2.68458843211309
C        -2.53737585254301    9.38967636283179    1.66980495285124
C        -2.16046881426698    8.58558963660659    0.60100043194273
C        -0.85456174093997    8.10579013017296    0.56803200295762
C         0.04502133289637    8.40494491584289    1.57098572084533
C        -3.12133547020258    8.26230864873058   -0.50479764735402
C        -0.33297475443767    6.14640125774089    3.54961683396767
C        -1.43113557894477    5.52951929178891    2.87111076109527
B         3.26043464417577    7.60731031393249    7.61874259750530
H         3.78883801038967    7.60298113708813    8.67024880924268
H        -1.11360959215688    8.54409306665186    9.10605417002439
H        -2.27739216416525    8.76274737681921    6.66876476095101
H        -1.22793427306296    8.65115520863413    5.24267915344218
H        -1.82889508020655    7.18139748488401    6.01894291146377
H         2.08196900016996    7.34110939755480   10.51166886574766
H         2.39567689688384    9.05764529622989   10.26416957401048
H         0.84336998556269    8.53219062705495   10.93290203220796
H         3.84805589198016    3.05043721287047    6.53989317154658
H         1.57400610899900    3.75769688696909    4.17111276129966
H         2.61715539100177    4.90550781768605    3.31735908123752
H         3.25831021272005    3.33624805011041    3.84609660691597
H         4.69485674760106    3.87151334803547    8.94925168012006
H         5.24228678210629    5.55489363185437    8.92441188008932
H         3.65425798929810    5.15819854199029    9.57662417879070
H         5.80003370029468   11.06168928765444    5.69756198635316
H         4.70366804966888   10.96877776041662    3.22013782870600
H         3.26708509704953    9.95786876439873    2.95745300599532
H         3.12204899678258   11.47084989484151    3.83928682441887
H         6.20771723207786    8.38550971223758    8.27151914286886
H         6.59560896352026   10.09941554935465    8.06007450112867
H         5.19641481135338    9.61554937099866    9.02845785763545
H         5.01574068324492    6.56031624530010    4.87205200596545
H         7.38268543787201    7.07136859325538    5.18834421660867
H         7.43122588925362    9.18510324375936    1.48294428373955
H         5.03489871283101    8.71391259740524    1.18844754828194
H         9.49258585456503    7.81412527273862    4.25919809210490
H         9.56341661992304    8.49227325129661    2.62533137216019
H         9.12235416208077    9.51722444631364    3.98847011884647
H        -1.95265162372659   10.31748661281867    3.50710978466458
H        -3.54272331259637    9.78628385943263    1.71105643481519
H        -0.53469569427456    7.49358341048350   -0.26415453507373
H         1.05569053962481    8.02935740936000    1.52453476626878
H        -4.14805113283877    8.44370767869242   -0.19431915959459
H        -2.91506637350244    8.88683088776935   -1.37462473295815
H        -3.02415771670002    7.22239560567984   -0.81358095238555
H        -2.05096920820193    6.30718549879415    2.42285277942770
H        -1.05287562787235    4.87856536254720    2.08308803392629
H        -2.02686308035134    4.94451321648802    3.57172765053880

