45
CSD_code = BILJIQ | q = 0 | S = 0 | Stoichiometry = C22H15ClN3O3Re | MND = 6
Re        4.16380557366228    2.43241349802404    9.24091694559521
Cl        3.01908257825543    3.09929888069201   11.23081993888883
O         1.49237991793544    2.86448401573103    7.74965834242424
O         3.37949624326322   -0.47424999999029    9.93258376955724
O         5.88566747805131    1.73698136775720    6.77056046055363
N         5.82800288107434    2.50204920121703   10.62804390669065
N         4.76774654509529    4.47375325648712    9.29773457104586
N         5.55033109324289    6.15777377047114   10.52635502919092
C         6.12272997995733    3.73030086427445   11.11123267093824
C         6.96495977197447    3.88744385537296   12.21114241677665
H         7.18066423048379    4.86065263360858   12.61098216517540
C         7.50580644182808    2.77020210580704   12.81903685877341
H         8.14495040386268    2.87970755547080   13.68167831673887
C         7.21190272210882    1.51801896226053   12.30327851940413
H         7.61439532941619    0.61975171143064   12.74213878475157
C         6.36946277306755    1.43896566923943   11.20870155244188
H         6.11595311612319    0.47804514684811   10.77943190633177
C         5.49496017545238    4.80229639205499   10.35788626430209
C         6.14144453044762    6.91949339501325   11.59479484158057
H         5.97901526187279    7.97625077272488   11.35947930197730
H         7.22692701976274    6.75822875384940   11.60895990710608
C         4.79591259349019    6.71048154928509    9.51683928086805
C         4.47931872751586    8.02302267396085    9.19048982943090
H         4.82604038483951    8.86097580891269    9.77612699897592
C         3.69018105776904    8.22163166042319    8.07757257983202
H         3.42204878491684    9.22900096416171    7.79753140781605
C         3.22615512872347    7.15534506014645    7.29972372806309
H         2.61444863902638    7.36722061212011    6.43655199066517
C         3.53001972240255    5.85066101657513    7.61342779542658
H         3.18215997928653    5.01694977204705    7.02396529368382
C         4.31848273071033    5.63266151321161    8.74119959199687
C         5.54269705204814    6.62514380022894   12.95476177636682
C         6.25457809189715    6.98842021449839   14.09258584844442
H         7.22059182862750    7.46452521292418   13.98953560822492
C         5.73552736026120    6.74397493410587   15.35043468051762
H         6.29775998709081    7.03038909601086   16.22686661716452
C         4.50188061618311    6.12816305459769   15.48321123589528
H         4.09964445933078    5.93025230202224   16.46527924396743
C         3.78853439275982    5.76848240098105   14.35383471681476
H         2.82850023862543    5.28462101242272   14.44420506024209
C         4.30169295231923    6.02050670748224   13.09293364405920
H         3.72690190245812    5.72440785765075   12.22868526761227
C         2.50854178276696    2.67293609404778    8.24067072970336
C         3.67055824383179    0.58526810625362    9.61033402072920
C         5.23143927615758    1.98719676756958    7.68231658331101

