57
CSD_code = BILKEN | q = 0 | S = 0 | Stoichiometry = C30H23N3Pt | MND = 4
Pt        2.79605926604822    1.57897873962553   11.54794944537816
N         3.77859751441036    1.84566629401665    9.79083883013250
N         4.53684567681810    2.39539073053144   12.21337268223636
N         6.44230378497386    3.45120431578884   11.73157237253586
C         7.54615831970420    4.07343809217455   11.04610115498097
H         7.85211623736238    4.93790900471318   11.64233780191752
H         7.20682843615174    4.44762128172336   10.07755818047000
C         8.72758028813374    3.11716147151081   10.89219564488419
H         9.54052693293781    3.61266698443151   10.36827943432452
H         8.44167083054126    2.22734840419456   10.33533522211629
H         9.08292572325992    2.80360957668715   11.87101246043153
C         5.01970668317733    2.38942251463681    9.88483360078467
C         5.83667831715896    2.50433125640994    8.75832098307267
H         6.83841483784101    2.88821039443064    8.83477897995573
C         5.36421414043937    2.09403327241067    7.52678054996035
H         5.98814879115753    2.17900437380035    6.65037327141113
C         4.08097866730211    1.56713400759318    7.44223610164721
H         3.67283182190650    1.24009422677441    6.50003352729683
C         3.33426995713409    1.45516316105445    8.59850636698809
H         2.33528795829896    1.03893705388919    8.58433329521215
C         5.36384521950137    2.76056271410992   11.23867168732646
C         6.29044557195141    3.48991820098980   13.09819278455734
C         7.07503966446404    4.03516811714097   14.10571414722033
H         8.00384638759697    4.54342264877803   13.89544013675616
C         6.62047678193604    3.89388582124431   15.40036494998486
H         7.20552559518173    4.30359874246174   16.20995826052835
C         5.42526628788508    3.22981247555812   15.69312535458367
H         5.11625519092742    3.14240076597901   16.72339550625545
C         4.63965229481161    2.68428170288476   14.70275198404749
H         3.71620259434184    2.16660748593692   14.90633469340110
C         5.08166174784116    2.82263183898038   13.38946101957929
C         1.93076691130499    1.33172757402667   13.28021765214476
C         1.41231696389520    1.21459636753041   14.37334762337678
C         0.84156334232157    1.08678320293145   15.66240438642981
C         0.09152888720488   -0.04405111363069   15.99315372000999
H        -0.05240507053380   -0.81301996490600   15.24832700140308
C        -0.45432158084219   -0.17047406771590   17.25517467408038
H        -1.03356953560289   -1.04852468970417   17.50456445951713
C        -0.26564677621693    0.82375666127870   18.20281039488957
H        -0.69537771361835    0.72154647753069   19.18899472653020
C         0.47390738471734    1.95077975446333   17.88084184439223
H         0.61976136182429    2.72854304475431   18.61787557435034
C         1.02673047286666    2.08494837373808   16.62234052779298
H         1.59987250475440    2.96578242524371   16.36718583638112
C         1.16404184965214    0.85089704338449   10.76253810461539
C         0.19988009474445    0.39515035796283   10.18080124090254
C        -0.93136387770655   -0.12638136502891    9.50833263094697
C        -2.21857645802607    0.22117718115883    9.92427663439181
H        -2.33407174916541    0.88633718192096   10.76749695864366
C        -3.32155854818798   -0.28220735078939    9.26368503590076
H        -4.31490738275326   -0.00886105441901    9.59115211830687
C        -3.16172507320456   -1.13816830586872    8.18490137259728
H        -4.02742832955547   -1.53115845803051    7.67135316114284
C        -1.88789352654474   -1.49049834609205    7.76838025703928
H        -1.76118594668742   -2.16018411447746    6.92883427381445
C        -0.77850636749682   -0.98924451560921    8.42083459221385
H         0.21630664172444   -1.26716797013754    8.10031476814143

