36
CSD_code = BILMUE | q = 0 | S = 0 | Stoichiometry = C15H15N2O3Re | MND = 8
Re       -0.69691738603326    3.43690822211876    4.49181679006865
C        -1.81063926488959    3.89663849594355    2.98320134850426
C         0.08419805197514    5.19438386968845    4.33350255283264
C        -0.65848862103204    3.27646580488603    6.85461017282450
C        -2.01427818887730    3.46380767260511    6.48281297672150
C        -2.41236567972434    2.34000000885043    5.72169006022621
C        -1.30869064985782    1.45084133247652    5.63919112818901
C        -0.23410044555580    2.02291645479691    6.34799675530372
C         1.39496369577769    3.74066453813561    1.61208653552398
C         2.38343293626731    1.58250936359291    2.25539435383686
C         3.49919508991910    1.79555771173225    1.44431277487504
C         4.39370243961203    0.77345838881156    1.21738926200969
C         4.20674341182099   -0.48917843867405    1.78596192862902
C         3.09844143629409   -0.70012265662918    2.60372121201178
C         2.20570469895249    0.32675068324490    2.83225151614213
C         5.01185024833111   -2.71523473493077    2.02358200882507
N         0.69514533779887    2.48528959825731    3.53099645454571
N         1.44232271479911    2.59926323151708    2.52582593193967
O        -2.52163879275801    4.15971840552022    2.11126461338006
O         0.53480040686444    6.25668739655674    4.27641379654965
O         5.14537371341246   -1.42086202226923    1.48518827134858
H        -0.10378913947737    3.89755492954917    7.54369580692087
H        -2.66130098276352    4.25603806259405    6.82861537951884
H        -3.41836364731828    2.12792129355317    5.38831292508604
H        -1.33940369032402    0.45100270516726    5.23167317372391
H         0.71170391667498    1.54640651884977    6.55980311177607
H         3.68963265293347    2.76062491425345    1.00516662731531
H         5.26161972884958    0.92840367826733    0.59667892964907
H         2.92071366110732   -1.65960018776829    3.06257099172089
H         1.34370897938090    0.16919124599959    3.46084783045174
H         0.41368333720524    4.20941120692591    1.71045415978606
H         2.15739329139567    4.47191668028424    1.88016412006633
H         1.54231401325619    3.40097205961931    0.58978812749314
H         5.86342532437950   -3.27945246235527    1.64701564488907
H         5.04360335033030   -2.70052717118957    3.11756534919832
H         4.08550405125383   -3.19432679997140    1.69123737810781

