47
CSD_code = BILPAN | q = 0 | S = 0 | Stoichiometry = C25H15O5PW | MND = 6
W         3.05988247622257    1.71440273932386    0.44055475856044
P         2.95182884184039    3.44846811392968   -1.32656699116915
O         6.18418539083442    1.91504834944925    0.18532006160049
O         3.20046339983361    4.05438051085721    2.53199782714166
O        -0.06861375709322    1.64535610634139    0.73027422539486
O         3.07052806083508   -0.60264799856520   -1.68139317007174
O         3.28321346608995   -0.42914881326037    2.70405343352850
C         3.61604250738760    5.13255098874996   -1.15999993079945
C         4.41796444161083    4.35874520322548   -1.89921630338046
C         5.63671345172476    4.12256028970870   -2.59770996352384
C         6.60683297107441    5.11386959702873   -2.76575239606948
C         7.78346775628249    4.82000208808564   -3.42540775435928
C         8.00887952099318    3.54503575690957   -3.92218727162519
C         7.04919808295243    2.55649210747628   -3.76291983823778
C         5.86913410220247    2.84230436005488   -3.10862080874606
C         3.33595602850101    6.35381652900445   -0.48136775421541
C         2.14879920580314    6.45010253763751    0.25012312337565
C         1.84774105112121    7.60515899023423    0.94138989159527
C         2.72374612154058    8.67988324335776    0.90791063539659
C         3.90167304770273    8.59482787243670    0.18093304986819
C         4.21231937216228    7.44169297694542   -0.51173316117834
C         1.75198255356081    3.49977718407975   -2.69327199694366
C         0.90579812481204    2.40616897789142   -2.84635296360164
C        -0.03002532213830    2.38881095403208   -3.86450182980683
C        -0.12784973008866    3.46474186520484   -4.73127626099115
C         0.71074266458467    4.55860588724211   -4.57894593167117
C         1.64848621472824    4.58021301173426   -3.56465431829539
C         5.05053329279685    1.81841321045425    0.28174997281751
C         3.13127128904609    3.19587574102178    1.78271278020645
C         1.06624661546140    1.66606872065630    0.60464057987961
C         3.04236910562608    0.24795879459634   -0.91917649823329
C         3.19998646822863    0.35396748655499    1.87584561113019
H         6.43165210290611    6.10498357342540   -2.37582007398450
H         8.53287171169574    5.58751371003702   -3.55162032829339
H         8.93351009634680    3.32210697929267   -4.43310485622515
H         7.22556316730519    1.56370143684903   -4.14903694133244
H         5.10765938500258    2.08356790219069   -2.97315493368635
H         1.47779602180763    5.59985848058566    0.26377099958855
H         0.93169302513103    7.67119112994148    1.50906077294514
H         2.48955579831854    9.58411796753314    1.44939931649053
H         4.58213445493294    9.43330356808622    0.15772910564869
H         5.13133020748327    7.37190860190461   -1.07344830076878
H         0.98800812240471    1.57086580511463   -2.16008649914130
H        -0.68399020395451    1.53726943757492   -3.98129637364594
H        -0.85937420293761    3.45365247161608   -5.52552177971969
H         0.63033591384372    5.39855137927849   -5.25365759432307
H         2.30165758345959    5.43390417417297   -3.44236332112913

