54
CSD_code = BILQOC | q = 0 | S = 0 | Stoichiometry = C18H24NO10V | MND = 6
V       -15.83414178299028   -1.45907230113312  -12.80222256400895
O       -12.66342568136965   -3.23884869394525  -10.42681341581352
O       -10.92062559815774   -2.48289144464733  -11.77553517550819
O       -14.39448178477560   -2.19076237520082  -12.51184997875501
O       -14.07132020068640    0.38839711446805  -11.83905400207512
H       -13.77648598964896    0.70105426143194  -12.70829882314248
O       -13.30405503448660    0.04923631601907   -9.01523159914151
O       -14.48606395452378   -2.91775450739172   -8.17054334930018
O       -16.72988436897397   -2.49729540342086  -13.48479399723132
O       -15.04534429149022   -0.55096887341503  -14.20564265852943
O       -15.15827729305444    1.01160653840041  -15.78096696967785
O       -16.40818098824774   -1.33562714484577  -11.19918117147153
N       -17.20657867012321    0.00579133745160  -13.17441146626876
C       -12.25178203357625   -2.90611910546079  -11.71829037571074
H       -12.40548213778154   -3.82922687431219  -12.30212803257776
C       -13.12287085483171   -1.77835968307768  -12.31206237640905
C       -13.11654004620876   -0.54937208562844  -11.37454872739320
C       -13.50443310274142   -0.98617085671396   -9.95207511877348
H       -14.54996445528873   -1.32188471035929   -9.96244604680712
C       -12.62559684982788   -2.16456537124825   -9.50638994948080
H       -11.59255159082292   -1.79906121060306   -9.39896468728711
C       -13.09645620206696   -2.70419319485116   -8.15517286142533
H       -12.57067543770429   -3.65030514239025   -7.96230576199323
H       -12.83065342851006   -1.97916147089757   -7.37172579841027
C        -9.98641632563546   -3.51076123748598  -11.49386710600290
H        -9.00567710073755   -3.04190696471208  -11.52263025534278
H       -10.04537288159560   -4.30049981358296  -12.24984995872650
H       -10.16541193742240   -3.94506576556051  -10.50680982004534
C       -14.41313528739472    0.90139090520595   -8.83206765270000
H       -14.09962136755587    1.64412325531934   -8.10000226007554
H       -15.27580094190599    0.34477103174435   -8.44700107548129
H       -14.69839316956048    1.39999591718929   -9.76286153531472
C       -14.93607859865203   -3.60510920056811   -7.03089681641346
H       -16.00753681881821   -3.75289987714377   -7.15268465340222
H       -14.74650999381625   -3.02667243681199   -6.11714872208302
H       -14.44659280480464   -4.58172289368488   -6.93615421450400
C       -15.65212452157276    0.31302731262839  -14.92826407402640
C       -17.15051607417339    0.40141286524940  -14.54639469273024
H       -17.56433878161963    1.39864433547814  -14.74376914595815
H       -17.66561061222587   -0.35388070434690  -15.15691608308731
C       -18.06533075000726    0.53046490304963  -12.38277037426341
H       -18.76512648814340    1.28098309965857  -12.76910191469264
C       -18.20443954392165    0.17154901849278  -11.00602554352994
C       -19.18389168887055    0.75284326823690  -10.18845606435860
H       -19.83929496050658    1.50144278770111  -10.61014046822477
C       -19.31318622884173    0.37748408174010   -8.87234559516643
H       -20.07008695449808    0.82857473756422   -8.25003697577031
C       -18.46237814837827   -0.59266595490366   -8.34044305178822
H       -18.56822763737321   -0.88180480228709   -7.30515355187134
C       -17.48886350629322   -1.18136155236826   -9.11391134991399
H       -16.81826860192838   -1.92970638705192   -8.71671456063686
C       -17.33442470293625   -0.81427076132550  -10.46484381239412
H       -12.69498970396534   -1.48831652219244  -13.29433770519860
H       -12.11268208898324   -0.09990776345366  -11.35034605908825

