57
CSD_code = BILQAP | q = 1 | S = 0 | Stoichiometry = C26H22MnN6O2(1+) | MND = 6
Mn      -11.92656808263823   31.28395357391152    3.66305563317587
O       -13.36153732742336   31.14337959995193    2.62396311307005
C       -13.53776433036315   31.19019031463839    1.35246407061331
C       -14.66459479207381   30.58888675141192    0.74417251264544
H       -15.35485590230080   30.05655458505889    1.38157913320969
C       -14.86420716800454   30.67338609414376   -0.60765746356151
H       -15.72623895833214   30.19959996267955   -1.05208801771589
C       -13.96420291560261   31.37269018733859   -1.42436637051168
H       -14.14395692802447   31.43476967768406   -2.48564817582238
C       -12.86835090286381   31.97568867304955   -0.87045033119638
H       -12.17629905313362   32.52498326168380   -1.49200938160977
C       -12.61267309144098   31.90121102432668    0.51525488144418
C       -11.47909206647137   32.53825351153053    1.06618530177516
H       -10.83203995829889   33.04647383623141    0.35350182823682
N       -11.15260866628176   32.55737239267443    2.33789003898370
C       -10.03032942012817   33.27303034841123    2.74871483215166
C        -9.41283936360250   34.30699785559639    2.04556829825607
H        -9.84452583456200   34.68558104598618    1.13215458444525
C        -8.24775342558775   34.87217718492468    2.52761655423568
H        -7.77351573601181   35.66959021439148    1.97791805375866
C        -7.67997409295247   34.40809682682499    3.70573983680508
H        -6.75307996286371   34.83094438578057    4.05960161242780
C        -8.30169164507833   33.41666040842275    4.44046220875842
H        -7.83542844293140   33.06952738394325    5.34900118770443
C        -9.50710968357422   32.86865776205212    3.99964056905029
N       -10.28377453032800   31.92332729959111    4.66561596066911
C       -10.07208381646961   31.68357440315864    5.93844244873877
H        -9.31580942807937   32.26617816800768    6.46098070854655
C       -10.74467991359279   30.72520974869363    6.72703570528798
C       -10.37921227724614   30.53039850776447    8.07650473945918
H        -9.57300495623752   31.12475481722620    8.48115034732657
C       -11.01935056426887   29.61120685845207    8.86149120730710
H       -10.72979971409874   29.47504682752865    9.89101642115510
C       -12.05811893696016   28.83678681953922    8.32415630070782
H       -12.56100870336285   28.11576671515650    8.95050148138152
C       -12.43877135830578   28.98246019187174    7.01745911154529
H       -13.23870954185202   28.39206803926033    6.59623784792313
C       -11.80189890713247   29.92463617884390    6.17363811254862
O       -12.13593889106990   30.04996957415949    4.94239813361584
N       -10.96167412291701   29.80831319585109    2.62602317947539
C       -11.55984849368010   28.68326781217738    2.29862585432528
H       -12.56481857484182   28.41783327605254    2.56545996841950
N       -10.73810435487626   27.89671222687901    1.58328625957894
H       -10.95409047127215   26.98372982817710    1.21471540312933
C        -9.55265594120375   28.55339783594823    1.44917833288317
H        -8.71922990293717   28.14171525864649    0.91979899164884
C        -9.70316045502175   29.74038718647470    2.10194524670131
H        -8.99335079944595   30.53391266387153    2.22881846134001
N       -13.00285566439433   32.76153875289331    4.66955255951125
C       -13.46695286193548   32.74508442726634    5.90017059409944
H       -13.25671221553719   31.99547658295202    6.63788735736485
N       -14.25065713465857   33.81183234362452    6.13136570293594
H       -14.72598550730210   34.02840892143053    6.99355966979195
C       -14.29333279611087   34.54788554602506    4.98679662694672
H       -14.85470025132833   35.45448081049951    4.90099652372736
C       -13.51532302176305   33.88511268475077    4.08546412868503
H       -13.29734814124715   34.14426963462518    3.06756210289991

