82
CSD_code = BILQUJ | q = 0 | S = 0 | Stoichiometry = C30H40AgBN9P | MND = 4
Ag        3.75680634046578    5.68191583703565   13.19528875269685
P         5.16585768415836    4.27261381278962   14.60458010331939
C         6.96706658232457    4.24089152685110   14.18530385875214
C         7.39822923032418    5.49389213098645   13.41713019483311
C         7.17991317670114    6.75617727768300   14.24389579318894
C         8.86133240835377    5.37147294774284   12.99870272386770
N         1.29007679438011    6.16578555776887   11.44220665232322
N         1.60327627583610    5.40265262887199   12.49430727593226
N         1.18477628661142    4.19776943253414   12.35410572081465
C         0.54800940200605    4.11371958786056   11.15789703452568
C         0.61544590290008    5.39612811587037   10.55448703048458
C         0.05127021311760    5.63916623010115    9.30484341931092
C        -0.57649315133145    4.58186935203290    8.69120126558072
C        -0.64766289228492    3.31116608597830    9.28516586932249
C        -0.09212334507250    3.05357034629761   10.51384676756326
B         1.85406555740291    7.58462339876046   11.29260881951414
H         6.77936683525651    5.56884446760863   12.51257319702718
H         7.49600728770507    7.63179822069787   13.68222652975467
H         7.75194812548062    6.71747504324706   15.16994991732956
H         6.11990279066109    6.87625037749215   14.48340711414581
H         9.16234385978983    6.24169010561824   12.42113692276869
H         9.01564122282863    4.48610446378768   12.38604691900695
H         9.50519538552050    5.30188845308372   13.87418697371448
H         0.11082785200916    6.61419487368792    8.84818399703387
H        -1.02993423303328    4.72513626455355    7.72133808996791
H        -1.15478183976205    2.52031277281669    8.75202209446454
H        -0.14129463959197    2.08036975474750   10.97543620729661
H         7.55045571995632    4.13029875283755   15.10574690925422
H         7.14456392681728    3.36251836653473   13.55949162590741
H         1.17015248319572    8.26844814556392   10.60871790079210
C         5.19742686325399    4.69167191233159   16.40583890104312
C         3.94449817937009    5.45990646560796   16.83709260835661
C         2.68216763181623    4.63328830411078   16.61851658051267
H         1.80660533984462    5.19499155372141   16.93470319397712
H         2.72075862303225    3.70712659591255   17.19038599722203
H         2.56208962738419    4.39399584309391   15.55845241850425
C         4.06691021328101    5.87809246902247   18.30026997790610
H         3.19674533113978    6.45570907135797   18.60132920662285
H         4.95235415080243    6.49060067860462   18.45475138625338
H         4.13633392821809    5.00247965776400   18.94397049792681
H         3.86967463955484    6.36456160507458   16.21836553663084
H         5.30794343579710    3.77115747097091   16.98913021715754
H         6.07583719018536    5.31739604620329   16.58343563123859
C         4.74649065697339    2.47141884937862   14.63591048448346
C         3.97823566251760    2.04042297235892   13.38289983205062
C         4.80494302546055    2.25910663305684   12.12064809018874
H         4.24325471880277    1.94306408329192   11.24502367262010
H         5.73105997978725    1.68716163570600   12.15921384726658
H         5.04432775210405    3.31916954307485   12.00069378154040
C         3.55982942778265    0.57728216264905   13.50502546363311
H         2.98211886701664    0.27648211772655   12.63483281305543
H         2.94735457264660    0.42270342906488   14.39047483676801
H         4.43535432879031   -0.06655310065786   13.57426165205662
H         3.07366223976904    2.65927549923488   13.30813326367331
H         5.66687827100790    1.88792638979622   14.74643909686389
H         4.12065862251598    2.29383023893674   15.51424398687409
N         2.00362566490695    8.14871353873096   12.71139757257455
N         3.05559660585692    7.83544504403608   13.47468323744202
N         4.03616364077847    6.38309588612652   11.04162990018765
N         3.27286350787288    7.43509918084824   10.72850153246766
C         4.04220628452856    8.32269799251908   10.05336010391710
C         5.32460195634613    7.71929394803449    9.98549443459227
N         5.24081996424066    6.52314712357441   10.62245091043994
C         6.38448205743052    8.36328301235299    9.34483686933735
C         6.12667268450492    9.59194619294630    8.78936995834963
C         4.85601985808427   10.18596566515365    8.86109949576574
C         3.79896231975093    9.57234887738340    9.48928330118223
H         2.82398342700244   10.02905028165103    9.54927162248486
H         4.71262565018767   11.15586171111298    8.40779924186649
H         6.91731152411075   10.12503910362296    8.28187234935484
H         7.35761925865433    7.90160799974967    9.29514901001006
N         2.91537263628607    8.25417002735025   14.67947930631988
C         1.71918914643860    8.89104381014371   14.76334753111499
C         1.11592523009124    8.82357749295353   13.48086823704119
C        -0.13364474910385    9.38783004276408   13.23763453980905
C        -0.74737712612153   10.01569605666591   14.29481987254647
C        -0.15356930769501   10.08689406016473   15.56559704785225
C         1.07505654701065    9.53131600997427   15.82337203559281
H         1.53658447095990    9.58062304561453   16.79659779216956
H        -0.68672173656002   10.59418266644244   16.35631795932446
H        -1.71720721201867   10.46916651317694   14.15141806752928
H        -0.59021682511483    9.32819225805812   12.26256941585895

