67
CSD_code = BILQET | q = 0 | S = 0 | Stoichiometry = C21H37AgBN6P | MND = 4
Ag        6.27045469631566   11.09026183022824    4.07396451097349
B         8.08448328704935    8.83389825979805    5.61107885669256
N         8.68516146766920   10.22553189652365    5.87158390025254
N         8.17911323711976   11.36659162494145    5.39948751534637
C         8.95121523920850   12.35111174155428    5.83630400059619
C         9.98943384682718   11.84405430217310    6.61433279735206
C         9.77602265847879   10.48179587863105    6.60716360473492
N         6.65096394091491    8.77744082469269    6.16268530834733
N         5.65856277391899    9.58374914586714    5.77974995797898
C         4.58720213782882    9.25040464778630    6.48523473288560
C         4.88281800081831    8.19973691548143    7.35072797599292
C         6.21338226593636    7.93322012423012    7.10763497907562
N         8.08249769838056    8.53399735284942    4.10308738148542
N         7.41966184988031    9.24886295624528    3.19223437191124
C         7.65467769942417    8.69775698339604    2.01052592822315
C         8.49192875492964    7.59291601227067    2.14871647353572
C         8.73763100793750    7.52943552436683    3.50401880975893
P         4.89387641860308   12.67039415169636    2.79039257995048
C         5.70897117408407   13.94608419116113    1.72590944152980
C         6.90631599780356   13.38764866201840    0.95174360214921
C         8.11007793903208   13.21351823184313    1.87055714274431
C         7.25494967696104   14.31059794418621   -0.21512971301312
C         3.80180080297494   11.86911627551305    1.52792275061280
C         3.50139924372566   10.40725674921290    1.86296794047461
C         2.69264679078044   10.29942106024804    3.14966888625529
C         2.76769369807107    9.73813745767402    0.70362700976429
C         3.67964423086331   13.76314061148874    3.66032019769431
C         4.27858202172073   14.43943922913646    4.89715159748165
C         4.41717031372332   13.44444330236509    6.04420624819460
C         3.40710143557160   15.62129828802783    5.32000465653037
H         8.73418993424842   13.37091747226282    5.57915196597189
H        10.77240946011450   12.38554062402718    7.10476737644914
H        10.32910098982095    9.69335435055757    7.07600881145612
H         3.65682313230497    9.76962147935605    6.35188446151763
H         4.22894430644824    7.71221165170906    8.04468721135645
H         6.86299204046287    7.20308220593316    7.54607367739932
H         7.22032046228202    9.10878276479674    1.11822859973254
H         8.85988708733683    6.94302232026785    1.38116412872037
H         9.33123082977862    6.83780616446144    4.06672540204859
H         4.95250580585201   14.33526185376518    1.03438786925638
H         6.03727808044056   14.76862938972176    2.36722578650595
H         6.63723207018405   12.40290375373710    0.54898503952785
H         8.94288784440617   12.77185459297697    1.32891607961142
H         7.86063320385274   12.55410557350329    2.70859684162385
H         8.42849713621331   14.17556580955434    2.26744797286107
H         8.11057060960976   13.92331844097758   -0.76321849212158
H         7.50485720646457   15.30460314869833    0.15087832986791
H         6.41878308561946   14.39919619121843   -0.90607845872514
H         2.87270257982364   12.44083618576238    1.43301005531289
H         4.33030807007243   11.91470230709195    0.57089124262257
H         4.45997769891602    9.89366755705734    2.02318654916676
H         2.48564221733534    9.25768698852416    3.38206557850111
H         1.74487575093241   10.82798737226175    3.05569595520692
H         3.26239252473877   10.72429728896039    3.97742542240288
H         2.57756907903518    8.69153157331452    0.92848203049524
H         3.35657229992705    9.78903489867937   -0.20980432402300
H         1.81233435099855   10.22866258576766    0.52397901453745
H         5.27792881306451   14.81534697537283    4.64531194472560
H         4.88296116667794   13.91727358424719    6.90536773666015
H         5.04087678667174   12.59434088524323    5.74489327262169
H         3.43976371839568   13.07092187376463    6.34375787648503
H         3.81850693715958   16.10020419941005    6.20540411199908
H         2.39880415321894   15.28292192338573    5.55141657854880
H         3.34683548826019   16.36400352039973    4.52681891979156
H         8.74535231531167    8.01775117247617    6.16544992018987
H         2.82017827970213   13.15674488014574    3.95590639709723
H         3.33533417777863   14.51624426497849    2.94233566906385

