61
CSD_code = BILTAS | q = 0 | S = 0 | Stoichiometry = C22H28N6O2PtS2 | MND = 4
Pt        0.89127736584965   11.13783056825708    6.46199908093315
S         0.47164124361840    8.78098163157202    6.25551878043364
S         0.71593544710153   11.30733150431616    8.74998923510393
O         3.94222465488749    9.07101610608268    1.72630760054363
H         3.46499189570449    9.12823663966536    2.57952543129007
O         0.94308755520280   11.11431163996451    4.39915624648405
N         3.74348993097310    9.38810736097982    4.31451603260703
N         2.87576574169265    9.26277801737208    5.34078060629049
H         2.80764479386078    9.97327854156387    6.09196167549541
N         1.77435583528334    7.53109831221683    4.29394164086638
H         2.58845013996488    7.50643286951594    3.69110911495124
N         1.25666331197350   13.08594426180277    6.49648915912679
N         1.01285302927660   13.75085049105499    7.65058382269825
N         0.46063949504677   13.66584476835817    9.87372109715960
H         0.44451662507214   13.06935522474839   10.68690491759578
C         5.08177526752794    9.77181399108875    1.86096757495826
C         5.89210026994305    9.89655972925637    0.73447617301328
H         5.55670964111048    9.43268326589363   -0.17982615184895
C         7.08678928230464   10.58056381501587    0.79491803496530
H         7.70547757555224   10.66157794941620   -0.08583378289891
C         7.49349386345101   11.15555975720759    1.99024535901125
H         8.43546960382773   11.67878786203344    2.04890695321032
C         6.69001011616611   11.05940487146994    3.10576345674554
H         7.02993491892981   11.49588928095063    4.03187640637030
C         5.46791082285866   10.38059773055184    3.07393020378459
C         4.61630552216846   10.33239022914021    4.26145013850505
C         1.75672494456682    8.50890872885527    5.20130114452037
C         0.57716053080938    6.89041114545111    3.79754284945357
H        -0.12871735616606    6.81306960613221    4.62583135644237
H         0.84617941727971    5.88631262182349    3.46306072671711
C         1.64042245381527   11.97106864320459    3.72382348391792
C         2.00457759485964   11.59853074308964    2.40906472597119
H         1.61798692112365   10.65824742277484    2.04352952114864
C         2.82927141642769   12.36954345059625    1.63503209917559
H         3.11127105291350   12.03541970074755    0.64753863482807
C         3.31697515350914   13.57434808354107    2.13540584298147
H         3.99582603050386   14.17246718972571    1.54693807982510
C         2.91758068109309   14.00294189287734    3.37701973776803
H         3.30408978234132   14.94047003869234    3.74488034912028
C         2.06720312555049   13.24582656511050    4.20319631084521
C         1.67129093759746   13.79850885252460    5.47985024726565
C         0.74650995477309   13.04941813642584    8.70743817396119
C         0.67264008039175   15.07862857597389   10.07742644306519
H         0.02029745043231   15.40202388119225   10.89234519685470
H         0.37366804307198   15.58296695165333    9.15708681274193
C        -0.03406199577925    7.69852052533035    2.65626192780528
H        -0.26162294540009    8.70483385618818    3.00155851576670
H        -0.95319268645036    7.23028999027510    2.31720360118535
H         0.65693311280550    7.76193825209577    1.81797568197299
C         4.77528554043279   11.38099405748078    5.32353510056893
H         3.80419489207321   11.66154610757800    5.74168798034157
H         5.22007431681270   12.27866722430275    4.90714132562520
H         5.39914315563045   11.01204629088532    6.13812888931338
C         2.12838907912463   15.41038606539163   10.39889814815570
H         2.44355095779487   14.90722685407224   11.31052017762985
H         2.24792895485104   16.48190497815634   10.53210206756844
H         2.76537665528788   15.08406746769694    9.58113121313356
C         1.76301421042371   15.28826869325741    5.66949785079131
H         1.55592688230750   15.81020762836721    4.74038532613022
H         2.75370425168325   15.56694289588560    6.02770782862671
H         1.04218345410837   15.58492046311883    6.42717382130219

