61
CSD_code = BILTEW | q = 0 | S = 0 | Stoichiometry = C22H28N6O2PdS2 | MND = 4
Pd        1.23155542088747   -0.97966232927343   -3.91751064229688
S         0.63583073988654   -1.80256295329489   -6.10744331996312
S         1.27501385109475    1.26276128900029   -4.40524453539551
O         4.36247749356429   -5.71880766556236   -4.89839093204722
H         4.26381508582915   -6.67797663855125   -4.97540955585759
O         1.08363293340824   -2.94501044047170   -3.33234449587240
N         4.01163116470188   -3.24598493302555   -5.00987875855401
N         3.06574973454122   -2.36632776806694   -5.36585664942862
H         2.84724979318251   -1.45754556622827   -4.84665926071902
N         2.06946601615257   -4.01650484671093   -6.61451921998318
H         2.88342586345007   -4.54727784109236   -6.31119035948093
N         1.60270170208840   -0.42137165291711   -2.04886161094421
N         1.36169050281247    0.87146030711540   -1.73613750256244
N         0.93139979056533    3.00022712377219   -2.47232147438505
H         0.98329912759623    3.61350229722136   -3.27170645810095
C         5.45849331222029   -5.45415576207020   -4.14226274683025
C         6.28917317242268   -6.49413345591919   -3.74220158096994
H         6.03799758616947   -7.50708321157004   -4.03208427907237
C         7.42244500135049   -6.25591095832335   -2.98889770312052
H         8.05333454570238   -7.07968812770125   -2.69176606513830
C         7.74071011781833   -4.95882024096355   -2.62666796889796
H         8.62993889105051   -4.75797225047213   -2.04938812498008
C         6.91147938635918   -3.92051719168297   -3.00062284741018
H         7.17606077353521   -2.91531238415343   -2.71434925312832
C         5.75420008787177   -4.13393229195386   -3.75044279065732
C         4.85432983492612   -3.02799441631886   -4.07554753896499
C         1.97109203461732   -2.82527007253646   -6.02989337409494
C         0.92143601032449   -4.73771608000001   -7.11158289577047
H         1.26155809821699   -5.41729719328879   -7.89636818322609
H         0.23413358773733   -4.00869850211882   -7.54503856346065
C         0.22643562488010   -5.50547946954895   -5.99049314638890
H         0.88412262307343   -6.27263027157941   -5.58727119619864
H        -0.67734991744876   -5.97909854819537   -6.36241335351088
H        -0.04083566746273   -4.81817955412368   -5.19060025870285
C         1.87829579595021   -3.38098511396740   -2.41208187789996
C         2.28888665125887   -4.73364652143361   -2.48525801894095
H         1.89743345537163   -5.31550568849277   -3.30602535344976
C         3.16371337004175   -5.27816289061294   -1.58379352508517
H         3.47502448133770   -6.30849032921945   -1.68445198391072
C         3.66060083924876   -4.50329023871866   -0.53925645472928
H         4.36944584430736   -4.92123154979914    0.15944803564708
C         3.23609507500029   -3.20367518573205   -0.40151975244219
H         3.63134784036112   -2.61290584552013    0.41112266175347
C         2.34846554544487   -2.60394056504365   -1.30776207800584
C         1.95478661492962   -1.22609954459049   -1.08713234197458
C         1.19098710178422    1.69916657389013   -2.72137067458139
C         1.07840689526784    3.58516968818700   -1.16134511601793
H         0.71741683639868    2.84938917115145   -0.44087018188559
H         0.44375640752599    4.47368740841916   -1.11649255277323
C         2.52704964929593    3.95097937687350   -0.84506485477793
H         3.14698779030368    3.05950656487416   -0.89200783906450
H         2.59721336737079    4.37629419930007    0.15220112096279
H         2.90379451211027    4.67706239983626   -1.56227965577616
C         4.95161650835432   -1.75482085466753   -3.27698436847890
H         3.99868826812948   -1.20598765214814   -3.26199476595217
H         5.70766343164460   -1.09746107177896   -3.70660568346201
H         5.21599344556688   -1.98079625205933   -2.24794966736293
C         2.00110522671094   -0.67675685321301    0.31246922740736
H         1.25767189206048    0.11248694119632    0.39859885589045
H         2.97675601168652   -0.23514212208256    0.51457267098032
H         1.80030281939076   -1.45587244388813    1.04140081999482

