36
CSD_code = BILWIC | q = 0 | S = 0 | Stoichiometry = C15H20Ti | MND = 12
Ti        1.56616511137860    0.10365304854395    2.14404863933340
C         1.68875710271751    2.00231890424212    1.32578785182289
C         0.42096205450769    1.38960709276800    3.29562930379244
C         0.87653258478045    2.62139089297052    2.48381505016179
C        -0.32154471225410    3.42610184231645    1.96119787584695
C         1.74049323039974    3.55997351960652    3.33389557940337
C        -0.44339922112403   -1.11714979910682    1.88605046808736
C        -0.36733401474643   -0.16849348006202    0.84328991695082
C         0.72530964469070   -0.51338956885968    0.01914549216053
C         1.29984598890934   -1.68698791430827    0.53716913610017
C         0.57971287984260   -2.05921734637175    1.68409059727582
C         3.74608057112600    0.65000540950589    2.86470848238915
C         3.87042682287685   -0.48329835840915    2.03111717253482
C         3.25399049502399   -1.56396146553208    2.68115546450258
C         2.67851491724434   -1.09573830555284    3.87290261837791
C         3.00795099134907    0.27137724638142    4.00390242814126
H        -1.23823983754174   -1.19496866893865    2.61913539359843
H        -1.09582764320515    0.60425483988247    0.63711299702536
H         0.98002688089302   -0.05014876967652   -0.92718042954082
H         2.08728869971690   -2.25864924747958    0.06400652541644
H         0.71284047077023   -2.96925282224675    2.25384886032864
H         4.27312289509811    1.58549861032147    2.73127012226794
H         4.46855676649424   -0.53777296453762    1.12838915186963
H         3.28919705861902   -2.59529875638538    2.36053976882718
H         2.20040587408914   -1.70321253126669    4.63314397874186
H         2.86980639522720    0.86567446247571    4.89763563322294
H         1.15810166507605    2.13935091726035    0.37600078524660
H         2.67248686098315    2.47522283863613    1.22610062516475
H         0.65520644334756    1.50140025313166    4.36045548777345
H        -0.66409467740235    1.25743182111117    3.20810783042390
H         0.01972156552340    4.26628529387992    1.35778204583334
H        -0.90842475951046    3.81695972751594    2.79139552236937
H        -0.97010866922119    2.80459112012459    1.34616804600165
H         1.16000187982141    3.95896242471374    4.16500152343453
H         2.09238737063781    4.39838001207489    2.73377936730655
H         2.60528031386145    3.03769972127101    3.73760068780679

