40
CSD_code = BILWEY | q = 0 | S = 0 | Stoichiometry = C19H20Ti | MND = 12
Ti        0.59146994298121    0.29137260436656    3.96614726439408
C        -0.26408888539717   -0.30035039103250    2.17459770648948
C         1.76735619373639   -1.19287933404140    3.12335125457776
C         1.06204808730229   -0.97525579726813    1.76957182151463
C         0.87826754570328   -2.23928120241711    0.96519520655948
C         0.16739729366479   -3.32510007580112    1.46616528007951
C         0.00377067353555   -4.47536707828059    0.71705565001799
C         0.54902531830013   -4.56416798239913   -0.55268273507798
C         1.25873529815848   -3.49252585796500   -1.06418616024094
C         1.42037037834326   -2.34282988234519   -0.31081273459540
C         2.39258101232732    1.59391366303000    3.17669324905192
C         2.30879694242353    1.80746709596132    4.57025574613453
C         1.10708156728968    2.48680961456787    4.82914314803181
C         0.40746026575751    2.62746977757484    3.61948013265037
C         1.21784402829026    2.10214508751307    2.58888647257537
C        -0.94313733753337    0.64606004170090    5.76400162231957
C        -1.47544907742954   -0.33816572153821    4.91095549952365
C        -0.62200236268621   -1.46006646263895    4.96485751062289
C         0.45500075919955   -1.15216821634708    5.82283802029549
C         0.24382099022188    0.14456596335887    6.32613809857353
H        -0.59025976527434    0.44539150418062    1.43875490720362
H        -1.05506743608334   -1.05459949549142    2.25879278918823
H         1.57202136718784   -2.20829554741902    3.48711233284160
H         2.85490004745433   -1.06996077554874    3.04641430678623
H         1.65414871604147   -0.27447262170841    1.16415489652195
H        -0.26563884055175   -3.27195516437733    2.45536341933086
H        -0.55243676862953   -5.30753445845679    1.12502034846901
H         0.42083060603992   -5.46270153021099   -1.13830243543003
H         1.68847959638787   -3.55096185368631   -2.05402781862887
H         1.97709017642354   -1.51146401146071   -0.72161352105611
H         3.26980441562853    1.25295528205216    2.64213889489667
H         3.10177350718673    1.61817325673400    5.28495328535877
H         0.81115715308237    2.90476325263029    5.78101036678572
H        -0.51582707733117    3.17758615757483    3.47620513700248
H         1.04066034084435    2.21513174401055    1.52720705334500
H        -1.43055275771787    1.57631189828790    6.02565466689336
H        -2.44216740446389   -0.29738646249566    4.42226014391783
H        -0.82383298871704   -2.42850454210722    4.52739162159564
H         1.22299174599243   -1.84278094473890    6.15219064085328
H         0.83517673230710    0.62015846623365    7.09776691063113

