73
CSD_code = BILXIF | q = 0 | S = 0 | Stoichiometry = C36H28Cl2N4O2Zn | MND = 5
Zn        1.80883651589904   19.58532690476550    2.79783810792321
Cl        2.75329265800208   18.95880949644849    0.90333094483162
Cl       -0.38774307916961   19.57119823723896    3.28503939179780
O         0.80469927561984   21.53610873773397   13.82749932673684
O         0.65243904816397   26.03972214721801   12.67291078259951
C         1.54803915668417   21.57200857974082    8.59399168811851
H         1.71436186301413   20.72974538526363    9.24934832020621
C         1.19863117546371   22.77151742512543    9.08887132864725
H         1.05031231859256   23.60673639563548    8.41639268915166
C         0.86271200152636   20.15504471834266   13.52751654618448
H        -0.00289876872470   19.86086547418812   12.91781880587344
H         0.77334827960668   19.66759944701829   14.50500458734230
C         0.66161580285589   27.11230077857034   11.75445586790864
H         1.60757118362135   27.13061283427861   11.19473971045044
H         0.62578866982444   28.00599018604018   12.38821979992959
N         2.40113617694995   17.87264802551131    4.08559102842729
C         2.51139724595090   16.61075107478311    3.71440786498902
H         2.54080585556444   16.43530854216836    2.64781994504221
C         2.58743493021029   15.56911179403248    4.62974387694780
H         2.67250364970586   14.55081534388451    4.28524357859887
C         2.54383904823719   15.86670775161536    5.98294714120489
H         2.59297766409316   15.08006713216700    6.72140752746482
C         2.43306005361033   17.19103710948264    6.37280483682560
H         2.39056729685239   17.48916141431912    7.40766682882609
C         2.36573543624503   18.16761349285901    5.38519818870987
N         2.24623484084972   20.41884120557244    4.67877073857928
C         2.20424993392158   19.58948920295326    5.71079589807906
N         2.00115706043054   19.95496546834842    6.96077267127228
C         1.74399371333700   21.24677396264141    7.20209910155457
C         1.67015444972361   22.16871103575849    6.14431690703356
H         1.39605384990657   23.19349727837279    6.32335588415872
C         1.94825800083722   21.70236699155446    4.86822931656473
N         1.97957966130024   21.79526860141205    2.50589973497647
C         1.93542374266157   22.41019964171871    1.34055014375103
H         2.00983044220469   21.77184523823998    0.47088671697453
C         1.80946463460678   23.78884197982305    1.23087722498041
H         1.77347374978259   24.25730277016163    0.26059398833024
C         1.73253151557977   24.53796045027357    2.39322570619637
H         1.63614330417448   25.61288490521479    2.35147645319525
C         1.78335613173361   23.88946573854918    3.61678645297745
H         1.73694626532311   24.45261353399883    4.53510597992297
C         1.90447189304642   22.50306793974810    3.63475574808149
C         1.01722469779054   23.08598063055144   10.49049733550734
C         0.90945844695519   24.42789109056459   10.86208707889747
H         0.93864424360894   25.18444048081091   10.09481782874929
C         0.76835874342923   24.77052176297341   12.20070337867795
C         0.74324753352434   23.76900996368122   13.16678964056953
H         0.64222919514313   24.03484709947736   14.20588399085677
C         0.83815120193425   22.42857346224882   12.80360400135225
C         0.96092516395849   22.08854338614339   11.46391011669010
H         1.01125480219090   21.05841561289902   11.16212917353444
C         2.14476666758590   19.72001933735160   12.85803707142074
C         3.34420162976919   20.34489079181049   13.17138520583435
H         3.35099463840820   21.13956553316322   13.90279289236273
C         4.51599849858494   19.96120132487502   12.54412580862871
H         5.44318613699246   20.45666173398520   12.79102127148398
C         4.50108112223406   18.94558056319797   11.60351384876336
H         5.41525417631362   18.64837004885483   11.11174610666489
C         3.30955807746865   18.31132050749433   11.29464548444369
H         3.29288791027593   17.51714215182603   10.56284667421153
C         2.13607391426999   18.69760345912027   11.91717084471327
H         1.20519769388129   18.20642232424236   11.66872340298161
C        -0.51053300741116   27.12386210617669   10.80208192410143
C        -0.38448616759047   27.70156212131512    9.54509972147326
H         0.55962834719989   28.13882820149420    9.24977685895944
C        -1.45919059424978   27.72058229288515    8.67414561521918
H        -1.35255157060700   28.17383033208448    7.69946664216614
C        -2.66688207466747   27.15573602433306    9.04857860117735
H        -3.50316306413384   27.16524145987117    8.36575922031333
C        -2.79771067015933   26.57967249804504   10.30043595409555
H        -3.73763519416319   26.13952482247202   10.59817240205517
C        -1.72624064366741   26.56756273852191   11.17553419888163
H        -1.82631650233143   26.12029176072530   12.15341032597065

