117
CSD_code = BIMDAF | q = 0 | S = 0 | Stoichiometry = C56H44N4O12Zn | MND = 4
Zn        5.42746985997548   -3.79744846622487    0.00002125359577
O         5.16871631014990   -1.10568848633587   -8.65130624120309
O         4.42929151566430    1.44241577745471   -7.79912959117149
O         2.50200167141316    1.25993960737811   -8.93485553366881
O         0.21219605073744  -10.96900426560156   -1.88126143628454
O        -1.11195025721462  -13.28850644032210   -2.30481172557447
O        -2.99792074057838  -12.16893823262610   -2.77247425265729
N         6.20473216427829   -2.25432673028866   -1.05802572725595
N         4.47739638952930   -4.46330257290285   -1.66338873597453
C         6.02597452943949   -2.00982932809523   -2.38485013348426
C         5.26130966579565   -2.77477166050735   -3.26410417255580
C         4.55419514016774   -3.92261139419080   -2.90969847566738
C         3.82919731247520   -4.74042128635166   -3.84095676842474
H         3.75020954790583   -4.55266033495543   -4.89394566828896
C         3.31170813585103   -5.77271210188810   -3.13470742978297
H         2.72792109463190   -6.59561233281955   -3.49823048643491
C         3.71758053776796   -5.58703274112303   -1.76962447096788
C         3.40343103512542   -6.46541954622412   -0.73297684577372
C         3.84815837039308   -6.33155877147643    0.58188681804184
C         3.50201433700148   -7.23142872216748    1.64682477139237
H         2.86778015252724   -8.09042209840028    1.54887781923029
C         4.11788436985860   -6.77467078163128    2.76193990487225
H         4.10378868337474   -7.20004143184655    3.74612105062717
C         5.20676445042149   -2.34057381713776   -4.67746718800368
C         6.35142255825115   -2.35546104875377   -5.47139370859916
H         7.28316540046344   -2.70304063677146   -5.05039758218750
C         4.01601174669971   -1.90041133250478   -5.23950247766306
H         3.12143962528906   -1.87910755912507   -4.63428527017280
C         6.30233485600951   -1.94001225273739   -6.78406377496945
H         7.18272574189663   -1.95029544856303   -7.40662335655458
C         3.95886810443068   -1.47085393805995   -6.55422914146263
H         3.01606363982829   -1.12136959135672   -6.94709226379018
C         5.10611163104436   -1.48493465673142   -7.33741281905894
C         4.05287999690206   -0.48506981830387   -9.22226669168729
H         3.16488452410527   -1.13117288759555   -9.22364144479148
H         4.33046623684795   -0.27903403653134  -10.26094760216974
C         3.71441202228564    0.84462591996488   -8.55170861550018
C         2.07897720872603    2.51410660047631   -8.40835510748121
H         1.06810720118501    2.67024480640864   -8.77483100936530
H         2.74063108863727    3.31037457138453   -8.75370473492884
H         2.09609251369410    2.49061196497594   -7.31719234149181
C         2.54700953055769   -7.62814462117486   -1.05110630332595
C         1.23892406483298   -7.45177659059368   -1.48140105987766
H         0.84505297188646   -6.45091030106081   -1.58149223332776
C         3.03409413137298   -8.92810885061974   -0.92152141532040
H         4.05335070391055   -9.08136445240782   -0.59971536339902
C         0.42382482175510   -8.53451630896985   -1.76800587216742
H        -0.58913153821518   -8.35294764168347   -2.09260340001636
C         2.23478394922332  -10.01158061682620   -1.21075136783884
H         2.60202205705091  -11.02100549499472   -1.11762756924148
C         0.91732511996813   -9.82653041737873   -1.63249175787133
C        -1.12603258989385  -10.85851194128570   -2.27457145310271
H        -1.22720305256676  -10.33246867564466   -3.23559491793278
H        -1.73021768089788  -10.32810713928869   -1.52413087873477
C        -1.70232823522854  -12.25834067472320   -2.44124510161019
C        -3.67539816731743  -13.40711192128256   -2.96204343356788
H        -4.69891973739942  -13.15391797654763   -3.22457728293690
H        -3.64766467445193  -13.99713505196542   -2.04422501647357
H        -3.20202343395016  -13.97862537859734   -3.76238235749361
O         5.68608982148399   -6.48921540837501    8.65133165650017
O         6.42548733918468   -9.03731647265079    7.79912514533457
O         8.35271943518707   -8.85493419950091    8.93496414906164
O        10.64302143428011    3.37390507520112    1.88126111047250
O        11.96730624264804    5.69333887732613    2.30475697914794
O        13.85324409763015    4.57367379412487    2.77231556307214
N         4.65022375783810   -5.34058788008497    1.05804202644835
N         6.37755983225160   -3.13161703323105    1.66340423095343
C         4.82897812666178   -5.58508548528669    2.38486837589933
C         5.59363668621346   -4.82013910635924    3.26412573774701
C         6.30076272978536   -3.67230662363006    2.90971688258268
C         7.02576803117808   -2.85449925353904    3.84097009896613
H         7.10475272271213   -3.04225528532604    4.89395975687222
C         7.54327717690229   -1.82222279703919    3.13471296475913
H         8.12708041558522   -0.99933202629689    3.49823087061471
C         7.13741144324091   -2.00790826750251    1.76962999959383
C         7.45157477132459   -1.12953059207729    0.73297908416392
C         7.00682461931057   -1.26337472208465   -0.58187867093529
C         7.35295709741384   -0.36349726143060   -1.64681497942986
H         7.98720245562486    0.49548873927096   -1.54887245534008
C         6.73705966315072   -0.82023802905737   -2.76192150211925
H         6.75114160614573   -0.39486036128846   -3.74610014242466
C         5.64815087633430   -5.25432544272355    4.67749522822617
C         4.50347346081885   -5.23942682567586    5.47139511354005
H         3.57174456193694   -4.89183727304449    5.05037666291865
C         6.83888615693364   -5.69449789067816    5.23955832811837
H         7.73347248496833   -5.71580830141933    4.63436247346925
C         4.55252592021224   -5.65487680165475    6.78406552769386
H         3.67212048061233   -5.64458653451464    7.40660395536965
C         6.89599424703204   -6.12405518455543    6.55428616741510
H         7.83878548437672   -6.47355045810671    6.94717074790894
C         5.74873209769502   -6.10996516024275    7.33744212290558
C         6.80189511615783   -7.10986883714024    9.22231450979509
H         7.68990877073474   -6.46379077995269    9.22371521742350
H         6.52427887031680   -7.31590363786172   10.26098731496755
C         7.14034714168068   -8.43956840238121    8.55175541075234
C         8.77573651149777  -10.10909990961716    8.40845459171315
H         9.78657005389109  -10.26529112150109    8.77500830087276
H         8.11402258690555  -10.90535419290221    8.75371998675385
H         8.75871256448400  -10.08556468734513    7.31729139244935
C         8.30804107732207    0.03316264649539    1.05110500411303
C         9.61612517010096   -0.14326955159658    1.48137745596243
H        10.00994911167190   -1.14415554222346    1.58145767794015
C         7.82101196401784    1.33315008784719    0.92154543544977
H         6.80175721475472    1.48645663261386    0.59975787368824
C        10.43127737343591    0.93942897471564    1.76798503761784
H        11.44422894035568    0.75780970243231    2.09256876435552
C         8.62037749989306    2.41658236635157    1.21077313616556
H         8.25318390021829    3.42602532078404    1.11766879593800
C         9.93783484638463    2.23146701361468    1.63248919098958
C        11.98125739203926    3.26334445714825    2.27452732346543
H        12.08242655141873    2.73731418764494    3.23555732671714
H        12.58539037408727    2.73289087313890    1.52407853009628
C        12.55763079950797    4.66314275476093    2.44118684483231
C        14.53079790099977    5.81181247733251    2.96184000588600
H        15.55433823563674    5.55856652215817    3.22425084916676
H        14.50298386968787    6.40186903875979    2.04404559310877
H        14.05753822242656    6.38331735535828    3.76225321183677

