56
CSD_code = BIMHIQ | q = 0 | S = 0 | Stoichiometry = C27H21O6PW | MND = 6
C        -0.01104300456226    4.47508147570744   18.29296776780147
C         0.52555920391568    4.83553151181512   19.66025115987511
C        -0.05866607587970    5.85199527099763   20.41116376101060
H        -0.89145151676852    6.40837437737611   20.00539271449816
C         0.41441347585650    6.15147971892909   21.67597124325243
H        -0.04972406079902    6.94349138053933   22.24510665619159
C         1.47323356532413    5.43879164359848   22.21345888317300
H         1.84263936879036    5.67629076702896   23.19971693092450
C         2.04744421460694    4.41411442172238   21.48170524590395
H         2.86627676064180    3.84315243323623   21.89318878244656
C         1.57075176302978    4.11335379507314   20.21801029337722
H         2.00771619076757    3.29481648439977   19.65986559230472
C        -0.51852969938723    5.70583305119913   17.57458215066378
C        -1.73685059939518    5.74553288452864   16.90845964681915
H        -2.38406882673032    4.88186452651951   16.91422529975845
C        -2.13928689426828    6.89357090647158   16.24580270201634
H        -3.09028485835426    6.90560292935671   15.73406616762653
C        -1.33544369681458    8.01975169104274   16.24066227358772
H        -1.65249645339798    8.91311341573804   15.72403256490039
C        -0.12399054349596    7.99538649926457   16.91236456057350
H         0.50727206660061    8.87173404250922   16.92473621613221
C         0.28044214022958    6.84895226437367   17.56979779111321
H         1.21954931101892    6.84466182762325   18.10786816020768
C        -1.03603651935535    3.36598297048057   18.40033890556786
C        -1.66313636118279    3.04662134839871   19.59787742213459
H        -1.43979480954166    3.60674082221020   20.49342938574105
C        -2.57141707695145    2.00344459679775   19.65842551488523
H        -3.04352162919478    1.76422115587320   20.59964288473387
C        -2.86920617600752    1.26545749033145   18.52661897122571
H        -3.57093541659871    0.44678811459700   18.58024760399002
C        -2.26204195770123    1.58515239268685   17.32436313852065
H        -2.49193496009975    1.02227459449734   16.43158619331088
C        -1.35256514957766    2.62584453352128   17.26351752601819
H        -0.90648100085416    2.89158014879226   16.31439823210642
C         1.30563990579831    5.33634113525997   14.98406050612013
H         1.98004799868343    5.98138397894148   15.56351969228406
H         0.36476619121317    5.88242044312790   14.83616189518972
C         1.92069250395305    5.03759523268247   13.64898226634319
H         2.21533270625934    5.92535102256764   13.10583180974837
C         2.09355800637090    3.83194428145534   13.14475308648470
H         1.79492304202110    2.94741653263837   13.68233893094538
H         2.54207235522589    3.68234708364029   12.17870683036143
C         2.84941508154342   -0.41451526262416   17.09420574951070
C         3.57437983273618    1.80297346183363   18.59184307938769
C         0.87605980066153    0.85301357941663   18.60297052456524
C         0.87400465867087    1.02091911102922   15.75458004488894
C         3.52186641088999    2.05330622634457   15.85537455488213
O         1.03513846679397    4.13318733698192   15.69615007260187
O         3.24462736568495   -1.48467522228820   17.02361913300241
O         4.43183427653041    1.94560311991931   19.33368833035960
O         0.18737438972353    0.45873266020057   19.42283610793267
O         0.18715339870645    0.72205220279605   14.89440224497451
O         4.32256246818350    2.40492580149870   15.12120573244837
P         1.40036484279621    3.78399271460806   17.21803059986370
H         2.29327879203805    4.84241851285975   17.49179248950595
W         2.17991673172228    1.44948055984292   17.20530397620052

