50
CSD_code = BIMHUC | q = 0 | S = 0 | Stoichiometry = C15H25CrO6PSi2 | MND = 6
C         9.20933868573333   10.20874269544673    3.06588749566555
H         8.61858006610813    9.42759473364800    2.56777975176393
H         9.03765740123875   11.16465290303040    2.55562586045626
C         8.81716210346011   10.31965257555467    4.50698130062862
H         9.47328361814171   10.94170691084767    5.10136212630036
C         7.76687156870386    9.72636034886092    5.04004221081913
H         7.10591531308363    9.10755856331311    4.45667938241553
H         7.51961106803794    9.83964396001489    6.08133752566824
C        12.93819380777237    8.81491383414587    2.93148937994770
H        13.36930609832266    7.82582959944011    2.75068470147887
C        14.79749696755367    9.31993627137485    0.54015899936139
H        14.87544385544920    8.25235559255418    0.36002467125651
H        15.61491581175693    9.60455840773024    1.19236605822084
H        14.94770144208093    9.82131610008569   -0.40962914217346
C        11.77521063435453    9.28786821655333   -0.00905812084611
H        10.77288819330388    9.51090321106824    0.34115113442557
H        11.81652033686049    8.22775433655681   -0.24168443269268
H        11.92464135582826    9.82866261053743   -0.93929609080311
C        13.00485532409011   11.66623970618857    1.55694308277358
H        13.77306791697404   12.01102048654926    2.24065428092770
H        12.04237690516293   11.95938908995785    1.96129681502420
H        13.14262967432037   12.19337764576358    0.61821598081168
C        13.90141826634852    8.04045541045456    5.74259550411773
H        14.64574047666107    7.31707563255990    5.42200420703285
H        12.95565399141809    7.51211262974079    5.83147088290299
H        14.18411054199880    8.37738322843262    6.73522402805657
C        15.55887875575412   10.08489189040511    4.12509968630500
H        15.57467144557349   10.93315085023463    3.45032941341440
H        16.14920746663392    9.29329481197179    3.67633571824123
H        16.05919886476404   10.38389327223653    5.03990474022893
C        12.78583703603248   10.93199609811603    5.27096083147730
H        13.35998893308919   11.44418360867038    6.03705593662625
H        11.87419320406662   10.56808608109099    5.73572163950814
H        12.50508256403449   11.66356667887162    4.52113115343795
C         9.49640113308633    4.91060415249687    1.83042952889625
C        11.66834813547711    6.14674509108493    1.29106206572806
C         9.21234689274506    7.32216503565938    1.03775031026667
C         8.75991582955542    6.63979310190184    3.55347421750196
C        11.16221019860361    5.61549468378906    3.71466065835322
O        10.60145047170436    9.95240825923384    2.91870150016463
O         9.04814849135971    3.90385686278395    1.49712569287435
O        12.55351490910727    5.74900413462971    0.67171176254350
O         8.51954812234302    7.68992576009679    0.19561765277395
O         7.84617178333047    6.55012716812520    4.24759825744444
O        11.73061752453810    4.98872643587633    4.49430164244515
Si       13.09682334945180    9.78130275607615    1.27223418947678
Si       13.78778812553318    9.49826499495058    4.51254852762321
P        11.19157551671736    8.47822591188777    3.24879076352783
H        11.14606388517963    8.55456249224144    4.66609958343848
Cr       10.21212593652205    6.51676516712380    2.39294693414075

