67
CSD_code = BIMHAH | q = 1 | S = 0 | Stoichiometry = C19H45P2Pt(1+) | MND = 4
Pt        5.17287160136962   10.56241312494727    3.84056503604904
P         4.40592743802206   10.12901152815934    1.68839753060109
P         5.85132319269092   10.57852092881523    6.05599644005463
C         5.85033435486586   12.45725875581905    3.45018085186860
H         5.06216658242274   13.14672357397736    3.76440070329532
H         6.06013256176201   12.60368403910749    2.39300227704855
H         6.75480855054720   12.64887154544280    4.02813524606640
C         2.59433493786713   10.52994764378310    1.60933102254225
H         2.12741574259052   10.01056174004653    0.76611941797983
C         1.95504133879665   10.06542582560684    2.91814564383416
H         2.48315609751159   10.51677756954895    3.76640764624889
H         1.97025414878673    8.98202383153653    3.02023673285048
H         0.91645709108303   10.38609905825763    2.96409258074531
C         2.41351448707494   12.03953756007072    1.46561176844408
H         1.36125750530618   12.29803118078290    1.56415989360087
H         2.75600630174815   12.40266545867746    0.50089294090349
H         2.96607382669053   12.55659493445231    2.25061567096896
C         5.18367211400193   10.95602568664982    0.21511316591013
H         5.07309997956253   12.02179980819628    0.45699030275297
C         4.51821153044033   10.71234758574158   -1.13637597892226
H         4.88828836675504   11.44709412070941   -1.84914299090879
H         3.43729185949116   10.81345279940776   -1.08404918861408
H         4.75427922510805    9.72892441235996   -1.52883208173875
C         6.67651709457129   10.63420092521918    0.17408083406154
H         6.84876023494018    9.63809238448057   -0.22495857055724
H         7.11389270674006   10.69200230886760    1.17213016720214
H         7.19479903609007   11.34204782381637   -0.46886582444951
C         4.49616477484038    8.26851550359495    1.54878133396185
H         3.74137508301881    7.92399980484172    2.27037313265787
C         4.14630922817342    7.66782772947601    0.19328165624299
H         4.94778372090098    7.82477470935460   -0.52291216501248
H         3.22592114096381    8.08668715727534   -0.20662898106683
H         4.00692347580316    6.59327734321394    0.29987353391068
C         5.86614441935498    7.78724444762810    2.03377259504842
H         5.83159789942167    6.72616028198232    2.27344169397406
H         6.18717867528380    8.33286450005267    2.92965291128075
H         6.62492668439278    7.93196737198084    1.26996134079456
C         5.07182958912693   11.71778982772112    7.29551621406176
H         5.18285915409077   11.28049103873783    8.29298441985395
C         3.58952817437685   11.83074116972456    6.94035325408943
H         3.10004563659343   12.55840760456353    7.58371423380915
H         3.07412357750942   10.88020970514397    7.06048223782555
H         3.47731682444342   12.16117367159820    5.90563082918042
C         5.73211864397691   13.09331164578277    7.27142861599331
H         5.70604339777184   13.51763150858141    6.26997943853238
H         6.76439327073925   13.05001946774636    7.60941013540952
H         5.19380737647927   13.76560127180051    7.93640146564614
C         7.69006975459512   10.67857479262862    6.27830250171959
H         7.93613586439178   11.73785417341465    6.13647161434647
C         8.18405540810449   10.23210613017216    7.64916330881684
H         8.01851270815370    9.16764709701749    7.79842320599954
H         7.69070693091223   10.78095129704158    8.44853379647555
H         9.25393945125595   10.41486968247275    7.72766903490716
C         8.34879611923781    9.88692755619411    5.14824676271911
H         9.41438994887317   10.09964998867100    5.10958450793516
H         7.91104840235863   10.16178522309059    4.18281836192768
H         8.23083451110162    8.81494711317868    5.29511528586116
C         5.37438663088816    8.83205200287332    6.52212414759959
H         6.25741672563846    8.22660648606548    6.27822466182133
C         5.00324591105872    8.58044703367953    7.97843876380505
H         4.09467217310999    9.11035465527801    8.25461797777513
H         5.80003663389037    8.88194993192851    8.65324228056051
H         4.82463364543820    7.51654416150087    8.12684371945437
C         4.23861030485115    8.41501467272987    5.57949510750563
H         4.44987389853127    8.75451550592008    4.54482778033683
H         4.12441796889340    7.33192186891557    5.55944980302727
H         3.29023835463471    8.84704871193913    5.89742824344186

