46
CSD_code = BIMJAK | q = 0 | S = 0 | Stoichiometry = C13H23O6PSi2W | MND = 6
C        -2.42955579154596    4.06368070112205   20.78864389583237
H        -2.43660033692813    5.07403348335552   21.19804587696481
H        -2.51324679317891    3.33895158587855   21.60560129446587
H        -3.28516774056506    3.93802917748368   20.11850161619287
C         0.70730025681194    2.89887441370149   18.63532952269287
H         1.18890715817996    1.93115304990759   18.46616865366462
C        -0.88511537482208    5.07582569471175   16.98894794130284
H        -0.52019945489989    5.90955717011727   17.57913014578608
H        -1.81530937414642    4.74059644256121   17.43793857220956
H        -1.11629803065088    5.45027841705218   15.99610250842395
C        -0.24491591681780    2.24851164109874   15.78734788564091
H        -1.04000386648042    1.68189958610987   16.26448909209404
H         0.55295630466218    1.54910706027916   15.55313434172651
H        -0.63124694538499    2.62602455734795   14.84551443063348
C         2.02034468721918    4.30848731152629   16.15108594712482
H         2.76646750427895    3.52348598652471   16.09005050013622
H         2.44504469658584    5.12494426233974   16.72368095107885
H         1.84640718342472    4.67001340942915   15.14342290171086
C         1.53834338822112    5.72542599193353   19.78283644307806
H         0.50332997753590    5.98446340247981   19.97679644318623
H         1.80387672181511    6.11549568298489   18.80635048836295
H         2.15121084479386    6.23904716229406   20.51680880890587
C         3.61761923797671    3.40639305988479   19.45380510720308
H         3.86400982586308    3.68436719061237   18.43540216063098
H         3.80769063798100    2.34289495116618   19.56038428824681
H         4.30571215523837    3.92692547698607   20.11081115969574
C         1.51919128026919    3.30744204514851   21.70441014056115
H         1.58451574022669    2.22937787272265   21.82496017249892
H         0.54210514608039    3.62313808547919   22.05564698702782
H         2.26167393861979    3.75238325731417   22.36137696929742
C        -1.36096867028465   -1.34140495052597   21.63175004367752
C        -1.24199999743014   -0.45083064777513   18.90461539936294
C         0.85730612868348    0.06844653511220   20.61729431480640
C        -0.99523795134529    1.25812797597113   22.50685642114459
C        -3.07963440465517    0.71994767877497   20.69676584948996
O        -1.20818870967049    3.91133941215658   20.09099683335617
O        -1.51937676671064   -2.34478630600733   22.15502687031493
O        -1.31005896760380   -0.90356842846876   17.85735954934309
O         1.97093790697725   -0.15684591596987   20.48597108031177
O        -0.97980697974381    1.70436212484620   23.55953086730694
O        -4.20739599516566    0.90825454355466   20.65499466928149
P        -0.85421165477895    2.47630596130909   19.42927847331755
H        -1.76620626481689    2.53616715629700   18.34266025277393
Si        0.39211330259209    3.66492549366391   16.90165432368391
Si        1.81437245804556    3.84211335541212   19.89966776689111
W        -1.10929049445969    0.40053788209289   20.70625203856180

