99
CSD_code = BIMMES | q = 0 | S = 0 | Stoichiometry = C39H41F6MoN3O7S2 | MND = 6
Mo        2.42248723214853    7.52539957195741   17.42672060933533
S         0.83601588747128    5.53264930787562   18.88608832901334
N         0.34780076509843    9.86099802116990   17.77504976245928
F        -1.20106862097683    5.74821102783863   20.62961162318538
O         3.11413897512537    8.31936394830642   19.60398149571141
C         0.89874245727468    8.93103954667511   16.95714706432641
O         0.90832400468743    7.00748338042778   18.88749972506015
F        -1.72511923166414    6.35499236272602   18.63636173006725
N         0.03260110339073    8.82609058740442   15.92316970189705
C        -0.83795638704644   10.31680377952882   17.26571555625860
H        -1.42360188293943   11.06414923941182   17.76120058420616
O         0.86642786276294    4.99163557235334   17.56647825292603
F        -1.58887144755453    4.25802149175597   19.11637270974086
N         2.49313113113880    6.84822806893404   15.84696759762988
C        -1.03480404403622    9.66429480014031   16.09695534034370
H        -1.82837422493787    9.73183951459769   15.38061274356861
O         1.41694257918481    4.87315635761768   20.00533256730462
C         0.96563559553342   10.45492133434353   18.91363674873433
C         0.49626237044866   10.17623833858687   20.19781576509191
C         1.10593324214825   10.81070659820950   21.27262567295940
H         0.75739221852715   10.59228271173902   22.27227459026957
C         2.13671374018837   11.72087044643300   21.09407361706300
C         2.54000385218610   12.02357389872374   19.80034658420374
H         3.32219797720014   12.75183756492770   19.64776809124886
C         1.96212737121045   11.41327157563303   18.69932584850796
C        -0.64093831826170    9.22868111971640   20.41236003307571
H        -1.56137439541196    9.62208283433236   19.98155789970640
H        -0.80508193925741    9.05341168669147   21.47191285982102
H        -0.42445859526725    8.27842836902565   19.92921184005818
C         2.78592818701714   12.39691381344057   22.26134578463239
H         3.86776216528779   12.38898297261625   22.14791100048452
H         2.52174786423708   11.90826322966007   23.19546537808388
H         2.46455306446892   13.43679199527640   22.31684730370600
C         2.35170240702941   11.81494483917378   17.31024713967458
H         3.11580577067668   12.58578547251482   17.34380052793438
H         1.48676896737321   12.20467394292754   16.77308344040756
H         2.73955236168137   10.95748244859682   16.76091824494371
C         0.20802841296668    8.09310787528087   14.71176792762391
C         1.01753402449834    8.64421484800144   13.71581908086651
C         1.11268691456878    7.98882691087954   12.49984018957233
H         1.74030675095785    8.40505699804745   11.72613227328402
C         0.42295592058985    6.80973780606616   12.25479212816185
C        -0.37549060819665    6.28884455703571   13.26043805178772
H        -0.91426959557770    5.36971267307156   13.08547418265680
C        -0.50217374900745    6.91413792552597   14.49302888405957
C         1.78147099538277    9.90665031007017   13.97103558820500
H         1.12140923938688   10.70585368918726   14.30619912498450
H         2.28861291211573   10.23128790500820   13.06715155461448
H         2.52180089615254    9.71796842080498   14.75011551107470
C         0.56561005992910    6.10199794290878   10.94498387501974
H        -0.31460888877015    5.50346021689036   10.72580046628632
H         1.42721259725203    5.43685513919979   10.99434889954060
H         0.72728664046118    6.80880635723633   10.13479737562230
C        -1.33865476410220    6.30383558908670   15.56951347591873
H        -0.67872937369942    5.78660417696412   16.26830094385781
H        -2.03099970831883    5.57668451894548   15.15381550995836
H        -1.90154250806012    7.04967920699186   16.12632406552013
C         2.74914205301627    6.13017991933345   14.75222962481682
C         3.66626088744905    6.58344944498011   13.79244584196899
H         4.13602448513542    7.54298832242093   13.94523592579180
C         3.97794694761274    5.80495591056398   12.69390956137208
C         3.37161669226559    4.56117857502925   12.55086820994245
H         3.62950776798196    3.94140116297667   11.70219538987776
C         2.45953223561923    4.09016431989300   13.48774716977042
C         2.13471451743102    4.88307300064401   14.57381217022609
H         1.45347161608837    4.53582467175741   15.33399898806704
C         4.95004977797178    6.30638939589696   11.66605071015869
H         4.47897596599608    7.06597353822111   11.04179549101679
H         5.28908019928118    5.49830889543199   11.02300466401656
H         5.81347668987552    6.75703004957163   12.14904327827919
C         1.83216794765079    2.73648708364862   13.34611459041882
H         2.13892801784092    2.10922861830382   14.18076690955598
H         2.13045760482650    2.25692360548290   12.41668208178173
H         0.74689492178731    2.81441744388583   13.37200225192829
C         3.92888531000694    8.76862942868463   17.11468422025591
H         4.44980543186980    8.95563195955190   16.17212715071097
C         4.56186602199762    9.47836224752314   18.17631459433432
C         4.15264163582762    9.20433625607103   19.50117477703968
C         4.78874762645980    9.79833291367550   20.57891704420473
H         4.48920735258770    9.58320780256373   21.59192694101030
C         5.82203486807143   10.69763948467326   20.35964600492591
H         6.31228776850193   11.15744755670921   21.20444686582767
C         6.23177018031116   10.99468923119199   19.06921819404589
H         7.04152324642363   11.69043089534880   18.90841197740836
C         5.61376379259880   10.39079225122236   17.99550241035034
H         5.94122227712269   10.60558360339648   16.98897009010506
C         2.95141049042623    7.69588490518209   20.86848238390641
H         3.91894999188235    7.35683247119453   21.25089869876969
H         2.30676403972948    6.82681895317090   20.73330945316727
H         2.48549502989040    8.39396792877502   21.57306443175578
C        -1.01934349760256    5.44362943280315   19.33708594932532
S         4.14901090220523    5.15028447409961   17.60407965937736
O         3.22972257252499    5.92576961149854   18.46556156344869
O         5.04126320055889    5.99126169558350   16.86735610525722
O         3.59494909640048    4.01665082466835   16.95452322132195
C         5.23861493279540    4.47976910078207   18.99422481197549
F         4.62898140156941    3.55999762401684   19.73743842200016
F         6.38913978191066    3.95208477027218   18.56627869195564
F         5.55344198345598    5.50586578098389   19.80148060690357

