64
CSD_code = BIMNAN | q = 0 | S = 0 | Stoichiometry = C28H25CoN6O4 | MND = 6
Co       -7.76544903657532   -3.21424992259687   -6.94911960379423
O        -5.27862425790513   -6.07980506687522   -5.76066157646846
O        -4.81481113556790   -2.57597671699800   -9.50591410482117
O        -9.19271051285550   -0.08101133396089   -9.29351561223051
O        -8.96234099119038   -2.15711912954937  -10.10262688181327
N        -9.16659456477478   -2.07507452254093   -6.97049989720355
N        -6.99192365489006   -1.86900174536831   -5.77413526566110
N        -8.83094367931960   -4.21569127162378   -8.17835534959761
N        -8.45786913607151   -4.39265465206171   -5.34761289563864
N        -6.35925091533907   -4.41486486566506   -6.87878227702092
N        -6.72808115049325   -2.36880473321163   -8.29446326923460
C        -9.05760091500712   -0.89104385715892   -6.35052568248268
C       -10.10735693001744    0.02204809761187   -6.39411497170738
C       -11.25067944736710   -0.31914694318288   -7.09496772962257
C       -11.33839287000100   -1.54615052696714   -7.74229470888584
C       -10.25322569064703   -2.40738389620847   -7.67772880467025
C        -7.75013790740751   -0.74057447030514   -5.73123675043495
C        -7.26380996593865    0.44058274631568   -5.17084180963440
C        -5.98989457415502    0.46573033396063   -4.64286959109669
C        -5.22586620479040   -0.69804560049544   -4.68489227954791
C        -5.76426170122626   -1.83045226593476   -5.26392459228270
C       -10.04392232524677   -3.65859496619558   -8.40041705352145
C       -10.96121702131468   -4.22996326733457   -9.27553519178417
C       -10.59930171195134   -5.35452834377964   -9.99076931061903
C        -9.33751412539098   -5.89214631295481   -9.78996815363511
C        -8.49370767723902   -5.29575706430865   -8.87060322172819
C        -7.34517381277279   -5.22383330093763   -4.85149478081789
C        -6.20706583249082   -5.29337003151438   -5.90378977761701
C        -7.80825150019632   -6.64297671916676   -4.47768166250891
C        -8.51656752721565   -7.28743494359907   -5.63493962754041
C        -7.79495851710149   -7.95613548743000   -6.61698227256311
C        -8.44172414022834   -8.51037058962447   -7.70613814997994
C        -9.81645149435930   -8.39442593231674   -7.83689957433387
C       -10.54379832879844   -7.72742194726440   -6.86820004234864
C        -9.89714383819667   -7.17918749825572   -5.77262528795098
C        -5.33066873688312   -4.27585812896871   -7.88277474532247
C        -5.59670196894112   -2.99597087496024   -8.66925066370825
C        -7.09513242193777   -1.16124504253999   -8.94648648527763
C        -8.60216186071609   -1.13105968084144   -9.52758323004095
H       -10.02123741827479    0.98579194209618   -5.92028674566405
H       -12.06769260629823    0.38143632042773   -7.16419058592838
H       -12.20961961689510   -1.79632763926680   -8.32355924547781
H        -7.88004936321146    1.32479365068001   -5.17465809881961
H        -5.59086483291334    1.37036879196247   -4.21125660469043
H        -4.22736414991610   -0.72273725008432   -4.28065497616507
H        -5.19380888465873   -2.74637542810600   -5.32026278626077
H       -11.92106491838974   -3.76398037633792   -9.42383760198224
H       -11.28063685903027   -5.79362500479955  -10.70312831784173
H        -9.00131800172895   -6.75241977033393  -10.34465696829236
H        -7.51401128717199   -5.70543839602513   -8.68143846668439
H        -8.91093639105407   -3.92303905983479   -4.56600753204832
H        -9.14877175427654   -5.03381425315831   -5.74702203075088
H        -6.91185809776437   -4.74435585093445   -3.96598246305223
H        -6.91321527916035   -7.21227108429936   -4.22390874484863
H        -8.46393786471063   -6.60214127045428   -3.60353488178777
H        -6.72353048396779   -8.03753620951341   -6.51715286704324
H        -7.87191210718195   -9.03956070076886   -8.45523426107165
H       -10.32185255151911   -8.83281736247275   -8.68426459511063
H       -11.61689256210206   -7.63982193088104   -6.95801534291104
H       -10.48331956197540   -6.69734682264519   -4.99897716336555
H        -4.33515157293026   -4.22087709384895   -7.42481295904764
H        -5.31148654380540   -5.12495147490830   -8.57792425721290
H        -7.00819358226918   -0.29334984966328   -8.27788485903961
H        -6.45828562627157   -1.02213340202089   -9.82502475975358

