30
CSD_code = BIMSUO | q = 0 | S = 0 | Stoichiometry = C10H14Cl2N2OPd | MND = 4
Pd        1.25029412141943    2.56404658503745    4.07698667716892
Cl        0.43714282859969    1.73644544008451    5.97203018300528
Cl        1.68730898315177    0.53769737464767    3.28579769482007
C         0.69499131549380    6.30742828883504    6.10047488498746
H         0.46738439442484    6.63751094583915    7.10100791894219
C         1.24136749675774    5.36731995863181    3.60764325397805
O         2.39960304887861    5.55031820632029    1.46189904773516
C         1.27891824476393    6.73355401286464    3.82872524874652
H         1.52206003018023    7.39085657293516    3.00862207604513
C         1.48579484781365    4.79292006768689    2.21611247382820
H         0.52766260772488    4.79096615947224    1.67388947861416
C         3.69316759003536    5.08882002808950    1.81136131567100
H         4.11076826930373    5.70791064713749    2.61539828672815
H         4.32166057776829    5.18232915800483    0.92521929001221
N         0.95493588849097    4.49354740392513    4.58315545083438
C         1.00580417962666    7.21601822268900    5.10003723351064
H         1.03132089952146    8.27593039845438    5.29990283420519
C         0.68258538855510    4.95553783259609    5.80268097410533
H         0.44986835952660    4.20019240869810    6.54506261692828
N         2.05123888263200    3.45074073564242    2.30825736605325
C         4.11473273138582    2.60811138087083    1.29445788062735
H         5.19913861875506    2.67465436501405    1.28598997492090
H         3.82815319797193    1.60244128712613    1.60066473575055
H         3.74948016259995    2.79064516661933    0.28528205474126
C         4.11768086969647    3.39362300611235    3.67237102550146
H         5.19924518827941    3.50518951948455    3.63430549701814
H         3.72581216888354    4.11740003400368    4.39300143465727
H         3.88612147199117    2.37411224469613    4.01372771456428
C         3.52385780487853    3.61472183041951    2.27680163031874
H         1.76739983089188    2.87111071805722    1.51623374597804

