41
CSD_code = BINBUW | q = 0 | S = 0 | Stoichiometry = C16H18Cl2NO2PPd | MND = 4
Pd        1.78059387550778    3.86079425029384   13.98561134869400
Cl        3.70547180334491    5.02477410248353   13.87150492947815
Cl        2.83814912503789    2.18521649380352   15.00485309471556
P        -0.24507279608929    2.95221567099655   14.32545323705827
C        -1.01651159571993    1.58027387786280   13.42753115703313
C        -2.04091938019221    1.71321223799159   12.49791425034596
C        -2.51901175383939    0.59393301769977   11.83814823498553
C        -1.97106449857799   -0.65265890119771   12.08889924994244
C        -0.92524744257680   -0.78365337706538   12.99037567668815
C        -0.44255569587996    0.32840061374744   13.65166294936273
N         0.72383981926572    5.24042514250266   12.85599780144919
C         1.35417861123642    5.91637276874612   11.89626644862253
C         0.67522886315551    6.60282319032884   10.90419877997577
C        -0.71015711062970    6.58190435075981   10.90496644449609
C        -1.36149889338470    5.88561668247656   11.91094501734940
C        -0.61912459412709    5.22614326810264   12.88025730871621
C        -1.26616879398287    4.47192895870848   14.00029420760414
C         0.65984022951304    3.74587719561279   20.62002738993716
O         0.74354708517838    3.97499825780320   19.21945681545127
C         0.01728553878296    3.16910062400036   18.44251578190632
O        -0.71415862316352    2.31018347334977   18.85925151368659
C         0.23374802932875    3.48856291608444   16.97976758985541
C        -0.62002308927377    2.58915260119151   16.08812663646421
H        -2.46550865656771    2.68235879385758   12.27950731321944
H        -3.32076131413575    0.69759022011159   11.12176423472631
H        -2.35006121543673   -1.52084465976546   11.57104702058999
H        -0.48310241776292   -1.75204246225121   13.16921908222868
H         0.39572415192268    0.24889700831255   14.33241906252402
H         2.43882418684713    5.91291402706181   11.94961133028148
H         1.22587613427576    7.13661926079691   10.14704796338180
H        -1.27457478342313    7.09683851353499   10.14287679747018
H        -2.43980704097335    5.85539708054802   11.94948501316709
H        -2.32152412004582    4.26747258526207   13.81223115189611
H        -1.18900653327869    5.07389868536033   14.91427584358772
H         0.98798721829031    2.73216791838708   20.85672438956148
H        -0.36850204345080    3.87270521253618   20.96478051805907
H         1.31384912499036    4.47764212761492   21.08626346132175
H         1.30075150709736    3.33123191640992   16.74980609523746
H         0.02048536089883    4.55188671831264   16.82662282143332
H        -1.68796879126060    2.72548273773561   16.28604047547610
H        -0.36774948091684    1.54508689988855   16.28985156201734

