94
CSD_code = BINCIM | q = 0 | S = 0 | Stoichiometry = C51H40NNiP | MND = 5
C        16.36353235722203    5.42449719532407    2.93287786021527
H        16.33823246479125    4.34759672252294    3.01741411828348
Ni       14.13332041534370    9.34131902902171    4.92413927500378
P        14.04677860925534   11.22751101404226    3.73029913750187
C        12.01321602278575    8.16020768217471    4.23497460011550
H        12.31751973522822    7.29266832619699    4.81020691280310
C        12.00279651441029    8.07078652496290    2.85017570778351
H        12.36609817911087    7.17568936442912    2.36850457724489
C        16.43447471490883    9.34878388580868    0.09724095193434
H        16.70536658146402    8.31530744648556    0.25847487058449
C        16.20341386171674   10.19103518249693    1.17651625362811
N        12.92812991700936    9.83019442706164    6.76554707657934
C        14.89303266170476    7.61559250673749    5.88210554514197
H        15.15581280444915    6.93584268293683    5.07112144668992
C         9.72195834621922   10.92005514091990    7.01889417350359
C        16.36685025026918    9.72255611506281    2.62323876565132
C         9.88782382681808   11.80927702561445    5.88854495311557
H         9.46534564509209   12.79525553723018    6.04325951649708
C        18.81462688524618   10.23409594802625    2.39967713293377
H        18.80599358020077    9.64224702266747    1.49542505218193
C        10.42858311017510    9.72675754702142    7.22591193464732
C        10.95792615323544   10.33222713338959    4.13980385191776
C        13.47520673795628    9.22126378417332    7.99841409999849
H        12.85068774415559    9.54327250327052    8.85091558477562
C        13.95496439640595    5.60958140427614    6.90683750449089
H        14.37324143755780    5.05891315723093    6.07533383597102
C        17.17578517326908    9.97980719344624    7.56205469017693
H        17.95823350936105    9.83558179419733    6.83049670486986
C        15.89883188122058    9.47014757771558    7.29340238009557
C        13.50060981089869    7.71509010151007    7.98081601512637
C        17.66752956856583   11.16454527939392    4.28140539122905
H        16.76502566442322   11.30608598273249    4.85985353094345
C        17.64009034086216   10.39272581715444    3.12977686480200
C        17.45811708154189   10.63785201906743    8.73912653284806
H        18.45373859217571   11.01478561798262    8.92174908214762
C        12.86642436672664   11.27515362962454    6.97972596141737
H        12.26700867186736   11.53015753352821    7.86509257799994
H        12.43570876790017   11.76092759113226    6.10859656478074
H        13.87702637998056   11.65737087337736    7.12543548689092
C        11.50460584049459    9.12299533023470    2.09908077677857
H        11.50778362676569    9.07491141485728    1.02002814991607
C        15.17659023308700   10.13769712344411    3.40662488630863
C        11.60193211236055    9.24001752475032    6.41056609708085
H        11.70388689751060    8.17636464642542    6.65912840163623
C        11.00099189536088   10.23304392402066    2.74086602242341
H        10.60891298372180   11.05178298906493    2.15439800812850
C        14.09048425589029    7.00422881275082    6.92437646109091
C        15.19110351282698   10.33527110490884    9.43234196211532
H        14.40860213718124   10.48508114402104   10.16365121320797
C        15.73058839781769    8.71115742227605    6.05922730494235
H        16.60365863524806    8.75626386463057    5.40853374153287
C        16.32513126633030    9.82275118722564   -1.19932651703842
H        16.50440281220932    9.15205476645058   -2.02740393061940
C        10.38974543158325   11.55279274570227    4.67276274067663
H        10.33427223472721   12.35410259864003    3.94523512041363
C        16.46295287274094   10.80900603907248    9.68906225581789
H        16.67396919209349   11.32025756485947   10.61642365790346
C        11.48724620368314    9.27863015818317    4.90105860324016
C        14.88917236062191    9.68228296541464    8.24445321331947
C        19.99014924105582   10.82563945929756    2.82118648432111
H        20.89399533110180   10.69111090117154    2.24474173201124
C        12.91766978490369    7.01696318375603    9.03143449161403
H        12.51203486387580    7.56872311885737    9.86888504192927
C        20.01066622331277   11.58950019071494    3.97702363331416
H        20.92984558560953   12.05178132884522    4.30589082527248
C        15.99480930537449   11.14462848750936   -1.43562347449113
H        15.90882672938162   11.51137099128549   -2.44787768403095
C         8.74000919295682   11.28863598351531    7.94858209476934
H         8.21144812795671   12.21950103446164    7.79777074477532
C        10.06801380863572    8.92476378983520    8.30674178540846
H        10.57910527593967    7.98349205981089    8.45262182091452
C        17.45640352063570    6.13391293228725    3.39754599498792
H        18.28758486473167    5.61192921819807    3.84934934245676
C        13.33526420030879    4.93330730453641    7.93466172363128
H        13.25099856139477    3.85700483288397    7.90096015506290
C        16.43361433043036    8.20421257024470    2.72127529662877
C        18.84593691870781   11.75771130899537    4.70302587905855
H        18.84762838400786   12.35276928518424    5.60485243664443
C        15.30062967798523    6.10475062495677    2.35994149586307
H        14.44408471309370    5.55689561857270    1.99269116420068
C        17.49495509298641    7.51526084240375    3.29088267197096
H        18.35943706692324    8.04922317711824    3.65835305685704
C        15.33334160692878    7.48281929379040    2.26208736145208
H        14.51000931105887    8.01852023591173    1.81077159384370
C        15.89361990254883   11.52311552019444    0.93048283525125
H        15.73723794671572   12.19495046856428    1.76209393823470
C        15.78518368209810   11.99558985760617   -0.36343401005133
H        15.54039190592551   13.03350942387747   -0.53523008923564
C        12.83815294624746    5.63732123859456    9.02143920900267
H        12.37471434964760    5.11509656902498    9.84503511497888
C         9.07986888487383    9.29035309618027    9.20017490626894
H         8.83315210701031    8.64287987207226   10.02844012096778
C         8.41961335194954   10.49572877425867    9.02798289000111
H         7.65630753976926   10.80756875863714    9.72536472464666

