39
CSD_code = BINDIO | q = 0 | S = 0 | Stoichiometry = C15H19ClN2PdS | MND = 4
Pd        5.04447386184532   10.29145735736314    7.06376623082965
Cl        3.60846111492463   10.05534261475701    8.84667965598082
N         4.90167210879078   12.34411451275008    7.49080467745927
H         3.92452008137320   12.62422924227292    7.36150229790960
H         5.04030967420175   12.25804282598948    8.50687565114471
C         5.13361959912036    8.46683896501820    6.67799899140846
C         6.30318750522904   10.66705719773266    5.53399825734377
C         7.14033659760267   11.74118092892810    5.53229459153453
C         7.90971199989957   11.89028868965319    4.33061453169959
C         8.84273604830455   12.86671021869321    3.97581633395345
H         9.07669005362454   13.67015282467616    4.65933236779405
C         9.46468664301880   12.80413769979656    2.74857084285565
H        10.18540830866692   13.56133166805516    2.47592820723997
C         9.17920149933348   11.77815310453631    1.84951700542380
H         9.68010058256858   11.75016558014104    0.89347149065833
C         8.26157481213421   10.79936215102287    2.17172258568749
H         8.02996363910577   10.00003283277742    1.48471281385369
C         7.63622764208458   10.86369601683871    3.40580323929530
S         6.44632746552098    9.75734874771051    4.03855236139714
C         7.19876649901549   12.69259672169770    6.70114495930958
H         7.93984324690393   13.46900557829749    6.51472780959210
H         7.49165828649903   12.14918746123273    7.61066207936327
C         5.82682757225135   13.33805724995302    6.93529626315681
H         5.92688501547438   14.19631807480206    7.61415295448028
H         5.43367223315227   13.69611000576751    5.97860070581033
N         5.11604184458396    7.34722903545233    6.36862552750166
C         5.16005045988048    6.02726204801390    5.87890113749361
C         6.61768340739486    5.56106633767430    5.92688918836226
H         7.23933957897959    6.20969195326446    5.31418135960922
H         6.69007016748013    4.54425373954147    5.55083434777842
H         6.99127163659610    5.58519598502609    6.94791960904889
C         4.64457427375545    6.06048033679312    4.43703421414677
H         3.61377970287373    6.40546495013261    4.41155844261811
H         4.69358095240923    5.06440544366324    4.00581261091675
H         5.24915579417709    6.73828363731851    3.83860470977593
C         4.26892577953118    5.15797129465084    6.76845335364625
H         4.63472960145062    5.16210803468455    7.79252598727928
H         4.26600595704355    4.13563895325487    6.40044806405324
H         3.24912875320213    5.53542998007465    6.76586454259311

