87
CSD_code = BINHOW | q = 0 | S = 0 | Stoichiometry = C22H54As6Cl4Zr | MND = 8
Zr        2.24460242514339    2.24445073408890   16.54215396507221
As        4.90279638072885    1.40875747011664   16.45860109983578
As        2.32446575883072    0.46777073131825   14.34207401649873
As        7.71538799557496   -2.20559462006141   14.33581570443317
Cl        3.47923225017933    3.27697935496720   18.42998069491047
Cl        2.09799218730568    0.02130745255356   17.57035048485044
C         4.66017287757870   -1.69297255967499   15.36866764524816
H         5.51102361614466   -1.98054046769772   15.99235899677496
H         4.23314631463093   -2.58656309188286   14.91331072140716
H         3.90104055550990   -1.22443665021013   16.00180426021753
C         5.12279410822562   -0.72286100732062   14.28632861753290
C         5.79750731841201    0.49871813291466   14.91804347216541
H         5.92406302578159    1.27383161364332   14.15127030522355
H         6.80213213020411    0.20801430522271   15.26437541691861
C         5.71096351932335    0.39226494538989   17.95318438341930
H         5.12387157816849   -0.49776580636761   18.17611954989827
H         5.70670753345267    1.03532114182494   18.83627022283472
H         6.73999686995417    0.10418191900137   17.72344585453401
C         6.23908397279283    2.86405634221973   16.49789208392486
H         6.06266966513771    3.54903433207287   15.66753517196754
H         7.24901689865917    2.45319585661993   16.41711240631302
H         6.15530351038161    3.42090922526962   17.43242693346406
C         3.93265627505558   -0.30238843080741   13.41475820647105
H         3.58619064202503   -1.16407321411491   12.82839588318616
H         4.26430055233962    0.46427038980080   12.70345877074750
C         1.20362716043643   -1.16383929012839   14.39269191294839
H         1.52830653679182   -1.83242181103865   15.18893820467542
H         1.22968785981230   -1.69282418680394   13.43698055280002
H         0.17547735966068   -0.85883272064335   14.60055240609871
C         1.54916727660731    1.14653483907578   12.65557494891524
H         2.06019493445989    2.06253011507050   12.35706988812610
H         0.49098857972013    1.37029611246758   12.79809712724936
H         1.65243913410865    0.40324491129301   11.86039827933782
C         6.15143014861965   -1.41932285189993   13.38290066162442
H         6.53722307889167   -0.69279609275513   12.66095308062944
H         5.66439611171093   -2.21578265393846   12.81276472203405
C         7.18219145179758   -4.10371363580811   14.21406472179976
H         6.37897551708496   -4.32810130785493   14.91331706563302
H         8.03167611858690   -4.73932610441759   14.46275371518193
H         6.85159385127960   -4.34741745586826   13.20556368193687
C         8.89110018225501   -2.23543668846849   12.75225195437405
H         9.24153958857441   -1.23023578039473   12.52154537871118
H         8.35943254116241   -2.62808508008839   11.88646373343255
H         9.76319121955670   -2.86107155363948   12.93961917906548
As        1.40842459077832    4.90281663184604   16.62542868218637
C         0.49876144444279    5.79760449456079   18.16611031560747
C        -0.72285711823987    5.12283546177202   18.79768558770809
C        -1.69296182989618    4.66018810692612   17.71533793061921
H        -1.98055033903936    5.51102576533891   17.09164101639277
H        -2.58655276935605    4.23313031861992   18.17067113792461
H        -1.22439913961356    3.90107084882125   17.08220081758827
C        -0.30232663994924    3.93269434914173   19.66922921821634
As        0.46759650862164    2.32427563061759   18.74214342600819
Cl        3.27737354031742    3.47903538182086   14.65339392267433
Cl        0.02128472231433    2.09842003565314   15.51391962763656
C        -1.16399172629079    1.20352296281686   18.69117071712223
H        -1.83259752174414    1.52820724150706   17.89494490305797
H        -1.69284335181370    1.22968805700279   19.64694462013345
H        -0.85891752505719    0.17538078660860   18.48337897904164
C         1.14668542626285    1.54913465158289   20.42852357436958
H         2.06267572125222    2.06016305193429   20.72704988947969
H         1.37036979437059    0.49095158229022   20.28592592787261
H         0.40329032776487    1.65244226844579   21.22359307405634
H        -1.16400606401140    3.58615022040617   20.25554338989391
H         0.46429483415078    4.26432671324465   20.38057680430538
C        -1.41938932015832    6.15144817315970   19.70108667295841
As       -2.20546185367149    7.71541861195043   18.74797102213511
C        -4.10360727837172    7.18220819357092   18.87003897697966
H        -4.32799692190705    6.37898308045744   18.17079840288925
H        -4.73925747090639    8.03164569585156   18.62128219190377
H        -4.34742426384644    6.85161397669331   19.87851924704501
C        -2.23547955955147    8.89102638721088   20.33165230298994
H        -1.23026546506507    9.24145987136867   20.56230337376628
H        -2.62808548461353    8.35945336433341   21.19752445242513
H        -2.86106763577945    9.76315837508908   20.14430750570145
H        -0.69285025122904    6.53723662790648   20.42302310680915
H        -2.21580455681392    5.66436422329021   20.27125208655467
H         1.27385164194599    5.92415634592040   18.93291789686976
H         0.20803330127005    6.80221181890206   17.81974937910323
C         0.39222842735395    5.71100750475454   15.13071523502881
H        -0.49778894376999    5.12387542692388   14.90785663635682
H         1.03528079374183    5.70678497047902   14.24762295977542
H         0.10414013255299    6.74001197326304   15.36056753377500
C         2.86388399671970    6.23901662054374   16.58615466231129
H         3.54894280284251    6.06262256982612   17.41645468128084
H         2.45316289217139    7.24900843787284   16.66693160262013
H         3.42074551916007    6.15525632661692   15.65162042640498

