61
CSD_code = BINHUC | q = 0 | S = 0 | Stoichiometry = C20H32Br4P4Zr | MND = 8
Zr       -0.00004065637907    0.00004064518012   -0.00016022485067
Br        1.78980458959732   -1.78980458746920    0.75679499396633
P         1.10836025898257    1.10832015093216    2.35038876957071
C         0.93958028896060    2.92693872892044    2.61275708466029
H         1.30287724746451    3.44346753442569    1.72380769421450
H         1.51952324539684    3.25013508438734    3.47530484705487
H        -0.10869419096298    3.18052581499145    2.76439395437618
C         0.49393381194684    0.49393282418053    3.97482623102332
C         0.97811842261577    0.97812697742941    5.18491497912729
H         1.74190968095391    1.74191651621960    5.19819945512504
C         0.49004804568792    0.49005834823817    6.38144719202584
H         0.87273487127962    0.87274677547881    7.31613206329667
Br       -1.78980833539984    1.78980833753302    0.75587717827072
Br       -1.79040425901188   -1.79035140548616   -0.75553867033541
Br        1.79035141890866    1.79040427243915   -0.75553866929424
C         2.92697550287711    0.93955953589543    2.61276317209611
H         3.44350150270100    1.30286519139801    1.72381601702914
H         3.25016389556438    1.51950084270659    3.47531512485542
H         3.18056361709440   -0.10871578674301    2.76439354405364
C        -0.49393282435824   -0.49393381212475    3.97482623087111
P        -1.10832015125506   -1.10836025930525    2.35038876929029
P        -1.10835857978933    1.10835857828422   -2.35046052243722
C        -0.93958392501591    2.92697633393310   -2.61279112831892
H        -1.30287773127619    3.44348568135964   -1.72382960874857
H        -1.51952919181461    3.25018662239862   -3.47533025645411
H         0.10869097110954    3.18056010813386   -2.76442558462256
C        -2.92697633527377    0.93958392462359   -2.61279112867534
H        -3.44348568253138    1.30287773102684   -1.72382960907718
H        -3.25018662330202    1.51952919164486   -3.47533025682583
H        -3.18056010965235   -0.10869097143517   -2.76442558501711
C        -0.49393965250700    0.49393965204929   -3.97488726739559
C         0.49392432103267   -0.49392432149028   -3.97491312415683
P         1.10834970179801   -1.10834970330260   -2.35051399538055
C         0.93958843160777   -2.92697149248494   -2.61281786602813
H         1.30288304326246   -3.44347148831423   -1.72385126843084
H         1.51953724631414   -3.25018600157167   -3.47535244114285
H        -0.10868489429319   -3.18056192246792   -2.76445216306530
C         2.92697149114473   -0.93958843199900   -2.61281786567145
H         3.44347148714300   -1.30288304351074   -1.72385126810199
H         3.25018600066898   -1.51953724648253   -3.47535244077097
H         3.18056192094954    0.10868489396877   -2.76445216267029
C         0.97811287984154   -0.97811287984227   -5.18499309821185
H         1.74190348338616   -1.74190348335380   -5.19827453584176
C         0.49003941742864   -0.49003941724076   -6.38151594413768
C        -0.49006709094129    0.49006709112907   -6.38150216854489
C        -0.97813293695307    0.97813293695220   -5.18496713939710
H        -1.74192311842292    1.74192311845492   -5.19824236979707
H        -0.87275893781423    0.87275893815016   -7.31618201783029
H         0.87272399656125   -0.87272399622510   -7.31620204946821
C        -0.93955953619085   -2.92697550306972    2.61276317233862
H        -1.30286519178018   -3.44350150298802    1.72381601736460
H        -1.51950084296130   -3.25016389545898    3.47531512522446
H         0.10871578646918   -3.18056361720359    2.76439354426893
C        -2.92693872911334   -0.93958028925676    2.61275708490245
H        -3.44346753471264   -1.30287724784772    1.72380769454952
H        -3.25013508428215   -1.51952324565236    3.47530484742355
H        -3.18052581510132    0.10869419068832    2.76439395459098
C        -0.97812697764698   -0.97811842283356    5.18491497883175
H        -1.74191651643575   -1.74190968117018    5.19819945487093
C        -0.49005834821683   -0.49004804566657    6.38144719203467
H        -0.87274677535566   -0.87273487115634    7.31613206340474

