71
CSD_code = BINLUG | q = 0 | S = 0 | Stoichiometry = C36H28N2O3PRh | MND = 4
Rh        0.26032321762064    1.55756504956571   12.96017628663909
P         1.14863949645171    0.46315265305190   11.20868185216122
O         0.69690326609952   -0.07694179533350   14.03775023308341
O        -0.66635121749705    2.32196285020860   14.63917212026520
O        -0.39204453235424    3.96880845142394   11.34198855110374
N         0.91963316479034   -1.22742895409807   11.40067833397594
N         2.79930955164631    0.64075974430529   10.87089744376389
C        -0.34740406517191   -1.59238004559496   11.87375575535512
C        -1.52603787631679   -0.85762942270887   11.85708045344947
H        -1.58132441631682    0.12989335796442   11.40759436119884
C        -2.65319506223851   -1.43346397431726   12.41917498948572
H        -3.57879259428484   -0.87771692757909   12.42670113345039
C        -2.61754475082568   -2.70873605855881   12.97614478055773
H        -3.51747512926378   -3.12349372069518   13.40557576351891
C        -1.44746825833299   -3.44222298956723   12.99341731784223
H        -1.41466384417744   -4.42798594004547   13.43294995319251
C        -0.30248031973066   -2.87674454313098   12.44763049379839
C         1.06642570956665   -3.30802788411583   12.36707438662183
C         1.70178266632015   -4.46813913585978   12.78666743483944
H         1.13429552488735   -5.26246212579185   13.24784377339445
C         3.06589007684936   -4.57745382788088   12.60682598097276
H         3.58394453132271   -5.46828319683235   12.92908227197637
C         3.78140650755150   -3.54245546578057   12.01526381879635
H         4.84912473645663   -3.64208214577086   11.88715315730725
C         3.16408948074972   -2.38104089042144   11.58431247936077
H         3.75795931043135   -1.60711841959533   11.13151740531347
C         1.79441583184565   -2.25843023599676   11.75994142757292
C         3.64727616201752    1.51123546233568   11.56579494585875
C         3.47120176331381    2.11254996181464   12.80110078218444
H         2.56584858892734    1.94758539535548   13.39321339790542
C         4.47881550203424    2.93493669442014   13.27183010688459
H         4.36079343162294    3.41556948320634   14.23117384095813
C         5.64190627205909    3.15347202477613   12.53814534898117
H         6.40662379803018    3.80192732233898   12.93858127378212
C         5.82777201406299    2.54912786834867   11.31110194514368
H         6.72960751228322    2.71080346950478   10.74054533849896
C         4.82612516370274    1.72106719270428   10.82090086925490
C         4.69959445470867    0.94387297912914    9.61617905152790
C         5.53399372701461    0.73952824400069    8.52535392175382
H         6.49040592012595    1.23646425400873    8.46900645817087
C         5.11537614309066   -0.11538925879550    7.52487924954099
H         5.74741177901572   -0.28625331140347    6.66638617612060
C         3.89411811719039   -0.77655111046724    7.61497465667719
H         3.60032738221212   -1.45700881201031    6.83002314178405
C         3.05063885734706   -0.58898296918393    8.69488803508653
H         2.12002580320449   -1.12851294261715    8.76901762090872
C         3.45047752333897    0.29416368371779    9.68380756533498
C         0.47127093438495    0.75551079369095    9.53351481130892
C         0.78493316621795    1.98269584854916    8.95771578154809
H         1.42772452869416    2.66908184576526    9.49417309855382
C         0.28756912198553    2.31838256726290    7.71356311612846
H         0.54003050042845    3.27006602584116    7.27070456769571
C        -0.53869526150173    1.43337966915223    7.03910194958457
H        -0.93238403395188    1.69522046619177    6.06838941338324
C        -0.86071082683037    0.21424477400800    7.61071460440203
H        -1.50516872491953   -0.47598535519585    7.08626325076232
C        -0.36058095085704   -0.12657498707693    8.85556847159362
H        -0.61049077980590   -1.08341902831560    9.29138863390819
C         0.72373028994766   -1.75275087945941   15.69943312987758
H        -0.14311346930536   -2.40890605916210   15.63160875894997
H         1.05416019614715   -1.72087242842522   16.73401282726659
H         1.51215643780052   -2.15831599753751   15.06920271506001
C         0.33475767989249   -0.37498432825776   15.21235820568478
C        -0.38924326591633    0.44674612762521   16.07358722194265
H        -0.62549287083391    0.07056220410801   17.05643513942514
C        -0.82904301289936    1.73336483637482   15.74112949250993
C        -1.57557499441950    2.50349788814740   16.80980580333752
H        -1.83767480847470    3.48897183227138   16.43398845793141
H        -0.95537771467320    2.60717710333815   17.69787134724276
H        -2.48198002227185    1.96895048348037   17.08602449556351
C        -0.13870304024919    3.04264655965374   11.97418902097438

