68
CSD_code = BINMAO | q = 0 | S = 0 | Stoichiometry = C32H26N4NiO5 | MND = 6
H         0.64682029641547    2.08964063290492   12.85157479965924
H         7.13444356177442   -4.44079017896313   12.49935743769102
Ni        5.54755671275049    1.38050959005066   16.05473672860387
O         4.25822164923575    0.41983195414441   14.85193249058223
O         6.25612561975357    0.45675269184222   13.92798360925482
O         4.98351156159980    2.98613516622026   15.30039478614439
O         3.81439274929686    3.91131499814559   16.96007331896907
O         4.06369044054397    1.44660642831337   17.90238505216238
H         3.93335792954937    2.42178439160042   17.75188722414898
H         3.27189219593109    1.03421823375652   17.54335582632837
N         7.07209879681407    2.23667696548183   16.95114805723530
N         6.26405869728267   -0.24443384795527   16.66089138518777
N         6.38098114320616   -3.84121129169856   12.78841452830487
N         1.06311797394375    2.95032693485958   13.16204189276081
C         7.42659886747750    3.49357292029426   17.11019962238876
H         6.70211954848870    4.24741386542816   16.83666177045365
C         8.67675882003497    3.86409903377207   17.61950814765779
H         8.91189466604895    4.91098853605247   17.72890854112986
C         9.58619594269661    2.89568865540686   17.97269685601978
H        10.55938888552230    3.15569442325849   18.36295164366530
C         9.22975775963447    1.54542646649249   17.82259924645694
C        10.07198420484771    0.44672093055482   18.16247358132072
H        11.05620421528124    0.66255294857890   18.55139106923894
C         9.65437644740288   -0.83479932649073   18.01001576811420
H        10.30029039738972   -1.65881993121105   18.27523095658350
C         8.35596029770511   -1.13810616719296   17.50499136886317
C         7.85308204419791   -2.43980736634349   17.33973003548765
H         8.47037025624019   -3.29071029132372   17.58802394397598
C         6.57122464314496   -2.59825580830714   16.86990064400115
H         6.13900009382076   -3.57724246452254   16.73466129393257
C         5.80511701920264   -1.47320292701441   16.54796003407672
H         4.79698967410183   -1.59291739402908   16.17705653400614
C         7.50954727157553   -0.07163778297441   17.14584678538053
C         7.94802082482873    1.27521978436255   17.30386400920353
C         5.06029634941230    0.15157634159534   13.90434134994632
C         4.49722025436130   -0.66931024254573   12.73694856573840
H         3.40839422604899   -0.66168349109254   12.77890111940417
H         4.84616012208129   -0.23275827067821   11.80186199737516
C         5.03388098082632   -2.05069581659518   12.90014477213421
C         6.15185950578240   -2.57307706402413   12.31966771018435
H         6.80948934137125   -2.12612868087954   11.59990699775821
C         5.41358962517650   -4.15986538621114   13.69488125580690
C         5.22141124824633   -5.31076789770244   14.44905603352904
H         5.89267941330527   -6.15325779746499   14.36215492259547
C         4.14434642175400   -5.33875038664756   15.30978282589536
H         3.96664570332186   -6.21796710337406   15.91183624686644
C         3.27189081633617   -4.25145671611769   15.41809220807352
H         2.43943970343370   -4.31742725942964   16.10335718022428
C         3.45296020025318   -3.10991074331599   14.66912407576270
H         2.77512638466853   -2.27371120291328   14.75589446109223
C         4.53918321211047   -3.04912401237031   13.79582145104560
C         4.20888401886741    3.85975117405341   15.79324458275002
C         3.73992904436780    4.91105080509336   14.78089959877447
H         3.48783939649281    5.83210792067832   15.30731323607703
H         4.53973057502619    5.09837363618860   14.06026093647150
C         2.52832171808997    4.36667839454742   14.09124382364118
C         2.27129866513707    3.05879709393493   13.79841902262152
H         2.86754395463492    2.19132784455587   14.00856991042996
C         0.51264817466354    4.19136090554388   13.03403668406384
C        -0.68829984982491    4.59458162127474   12.46480219985765
H        -1.36588636307337    3.87612932088820   12.02579312533351
C        -0.98362675434651    5.94075684807833   12.48059508278158
H        -1.90993611080274    6.28880474740651   12.04699885334517
C        -0.10649100847760    6.86888327073342   13.04856622315759
H        -0.37685588987065    7.91504892763141   13.04029208644730
C         1.08597215336067    6.47631736499661   13.61334350023057
H         1.75654334569780    7.20241883924204   14.04890970872173
C         1.41236021388453    5.12068624134933   13.61368926288383

