83
CSD_code = BINYOM | q = 0 | S = 0 | Stoichiometry = C40H38Cl2P2Pt | MND = 4
Pt       -1.58484963352063    1.49167658090673    3.48260718888478
Cl        0.10802981682835   -0.09066869586895    3.38703639177392
P         0.25683795560237    2.80543917906854    3.17935766802156
C        -0.01885138743103    4.59015211433747    2.69203473334983
C         1.20760160992717    5.23951063458132    2.14613718148507
C         2.07234074933060    5.95853941175419    2.96281652122768
C         3.23160759080287    6.51300766006742    2.44897875056075
C         3.54042469242382    6.35934765034153    1.10900247868309
C         2.67553320820724    5.66187874000624    0.28197386699245
C         1.51914971883990    5.10757500391224    0.79630580419919
C         1.28268323383503    2.93787691350303    4.70532497156504
C         0.35392318197952    3.06410950376402    5.87395332583328
C        -0.18318649050411    1.91723301446130    6.45329821600509
C        -1.03811321269084    2.01671331214583    7.53789028932670
C        -1.40049706771740    3.25978695314532    8.03105372620750
C        -0.88562656454381    4.40456784432021    7.44865893347121
C        -0.00731864821200    4.30591387027865    6.38203196700358
C         1.42196508719584    2.27271202952346    1.89457217073787
C         2.78517077840067    2.53349383436933    1.95743549631570
C         3.60812242959915    2.14124479350039    0.91658535555383
C         3.07943207330720    1.49638351031545   -0.18842916241708
C         1.72081197567819    1.23124999099876   -0.25100878861051
C         0.89711487407365    1.61614379820368    0.78845946790711
H        -0.80793311739132    4.56739901388709    1.93482813408781
H        -0.38784320630016    5.10913653094174    3.57815997962682
H         1.85838054310040    2.01126202560043    4.77133472911123
H         1.95586884599763    3.79417891418748    4.62535264592563
H         1.83196562538603    6.10096400538412    4.00747522440330
H         3.89437264886913    7.06707031642309    3.09762976409361
H         4.44705932771151    6.78798367877285    0.70922993647486
H         2.90476533337457    5.54687137535509   -0.76688678293104
H         0.84500608228257    4.56234671655264    0.15121718600315
H         0.10438225996321    0.94550720817943    6.07652701357604
H        -1.41760118202985    1.11987189784834    8.00500754390901
H        -2.07577604231626    3.33518691528212    8.87058657782435
H        -1.16041633642670    5.37811324511950    7.82911258284357
H         0.41275558532888    5.20582859787962    5.95333886532953
H         3.21155946342961    3.03983844228491    2.81049002407309
H         4.66829613914616    2.34131154709113    0.97023090903029
H         3.72789494380305    1.19247926851306   -0.99697612318604
H         1.30804405079832    0.71748933751134   -1.10671721870640
H        -0.16198002020814    1.39620819665967    0.77148158546860
Cl       -3.27797755784538   -0.09056668020066    3.57859068462824
P        -3.42690929087993    2.80544779103252    3.78624004084229
C        -3.15114575131285    4.59014270321599    4.27355330411934
C        -4.45271661461320    2.93786533386048    2.26025598856683
C        -4.59199423726017    2.27271272563605    5.07104453447512
C        -4.37760066110577    5.23949948991948    4.81943402676684
H        -2.36207366304791    4.56738022928148    5.03077107599377
H        -2.78214639277124    5.10911323889052    3.38742310602990
C        -3.52393739515772    3.06413185930477    1.09164675304576
H        -5.02838408380867    2.01123619074299    2.19423563786373
H        -5.12592067557916    3.79414506587871    2.34025300042704
C        -5.95519569398226    2.53345197285986    5.00816767567131
C        -4.06711229683775    1.61617446023638    6.17716486429045
C        -5.24234588339487    5.95849973424044    4.00273532383539
C        -4.68913411690479    5.10761295999402    6.16927449252995
C        -2.98679425536491    1.91726995411821    0.51229955146149
C        -3.16271867540612    4.30594420508157    0.58358198020228
C        -6.77812867643689    2.14120881176465    6.04903397625087
H        -6.38159825032000    3.03973732966485    4.15508573412609
C        -4.89078664553177    1.23129653503553    7.21664681663980
H        -3.00801618189898    1.39623827450105    6.19416596784118
C        -6.40160941428272    6.51298637720785    4.51656408540077
H        -5.00198826694162    6.10088077910429    2.95806628569148
C        -5.84550973669993    5.66194403634557    6.68359993799751
H        -4.01498688397189    4.56240287359093    6.81437663282975
C        -2.13188023545487    2.01677359184330   -0.57229505536247
H        -3.27434166236672    0.94553405491022    0.88905683070150
C        -2.28441382917913    4.40462254387567   -0.48304868715146
H        -3.58280917737746    5.20584274582456    1.01229052481946
C        -6.24940984222739    1.49640945671477    7.15406639446832
H        -7.83831030761292    2.34123053022203    5.99542910478768
H        -4.47799467021236    0.71758788569757    8.07237529546724
C        -6.71040950344531    6.35938217028192    5.85655201466636
H        -7.06438375839031    7.06701964398640    3.86789732024352
H        -6.07473010798473    5.54698613399973    7.73246905913030
C        -1.76952365739164    3.25985925726180   -1.06545202466324
H        -1.75238582336195    1.11993634963212   -1.03941373822805
H        -2.00963521853468    5.37817167485283   -0.86350235776585
H        -6.89785609491410    1.19253065222543    7.96263414646522
H        -7.61703684700105    6.78804033944053    6.25632053183507
H        -1.09425487909258    3.33528183680550   -1.90498996799993

