53
CSD_code = BIPFEN | q = 0 | S = 0 | Stoichiometry = C26H22N2O2Pt | MND = 4
Pt       10.76352502289303   -3.45773255751615    4.75960898975029
O        12.72600560187293   -3.13724895577900    4.67227749686782
O        11.06507666630558   -5.42192555257497    4.46482912496014
N        10.37667061435368   -1.55500680566262    5.12548421101938
N         8.80306358600667   -3.66593885871765    5.05908903407461
C        11.18627431375466   -0.50473194304390    5.08938877334346
H        12.18901716443884   -0.68882939627213    4.72715328425674
C        10.78488668305195    0.75769244320308    5.51600626737701
H        11.48661907835547    1.57525865260350    5.47415719673628
C         9.50277080977879    0.95431520179350    5.99341236555503
H         9.17621304367164    1.92556942037952    6.33228139664978
C         8.62092842300108   -0.13476688305555    6.03346463129765
C         9.10777051289808   -1.37943679217495    5.58272337799200
C         8.01628720110387   -4.73211546958375    4.96293460877396
H         8.45825808613908   -5.62683942472615    4.54757550478270
C         6.69041764538307   -4.72399489065228    5.38211688126809
H         6.10741184322959   -5.62632719460187    5.29236384059565
C         6.13340664606873   -3.57338517520334    5.90791013042171
H         5.10764028706982   -3.55066690278331    6.24216040615583
C         6.92570115546450   -2.42030244006461    5.99214038407185
C         8.26361238905697   -2.51797137463626    5.55622858136378
C         7.27369571100568   -0.06963205048891    6.49456285836495
H         6.90700397107548    0.87983424176573    6.85518928334858
C         6.46737157008839   -1.16060463365901    6.47775733611116
H         5.44714987399677   -1.09456432631733    6.82544163102871
C        13.39001579524479   -3.73347111148655    3.70141208987390
C        12.79326676478734   -4.04343947527691    2.47045470044299
H        11.73545830645581   -3.81289541755068    2.34194750599140
C        13.52243149090702   -4.62607150268555    1.45612959584789
H        13.03538733387420   -4.86371340352119    0.51994286124204
C        14.87435812748000   -4.90512612811106    1.61330448890669
C        15.47465271314306   -4.58481444065822    2.82720977216315
H        16.52620953133034   -4.79600688797700    2.96782580991771
C        14.75732144202057   -4.01272373288301    3.85459595061241
H        15.22947849781452   -3.77745723826734    4.79687688584965
C        15.67925933006541   -5.52246581694337    0.50770098879482
H        15.03860618196245   -5.82160396018473   -0.31837170799335
H        16.21560747775123   -6.39951507996501    0.86780599871456
H        16.41749695604919   -4.81328299090379    0.13135354047828
C        10.79092278986537   -6.20136796285314    5.48569745762754
C        10.72352546480284   -5.72908195295372    6.80718120517356
H        10.96754971218047   -4.68102115629539    6.99380726874739
C        10.40259191361535   -6.57195422741358    7.85119414235475
H        10.35900841480032   -6.17624600762384    8.85741360464017
C        10.14373360671534   -7.91849593853255    7.63424445951889
C        10.23394815961778   -8.39975116218642    6.33137550010689
H        10.04874483581485   -9.44879956836758    6.14332057410737
C        10.54711428914614   -7.57088900918046    5.27725619634022
H        10.61405079691762   -7.95462972952783    4.27004970453087
C         9.79827409060760   -8.84259248041998    8.76511489938969
H         9.66475726908448   -8.28886114379768    9.69155167459284
H        10.59181788862912   -9.57503171467218    8.91461157361520
H         8.87993291924365   -9.38833909202543    8.55013566224239

