29
CSD_code = BIPGIR | q = 0 | S = 0 | Stoichiometry = C14H8N2O4Pd | MND = 4
Pd        3.22445274264697    7.77691023725408    8.55600183010218
O         2.87457099079280    5.84144381966227    8.37184282925501
O         2.72188905043067    3.99377899488016    9.59125563254074
O         3.39986683625520    7.33679429928571   10.47404154841855
O         3.29968345616032    5.60787543402188   11.86145579862775
N         3.57636027137858    9.70970171542021    8.73093891913271
N         3.05885250773725    8.21988821803301    6.64206915154851
C         3.83316410382043   10.42037251743574    9.82156933811038
C         4.06714597356209   11.79661190674641    9.76676356443729
C         4.03702653833310   12.46066827112521    8.55890541311874
C         3.76744333795587   11.73076776678367    7.38673333500429
C         3.54267753536531   10.34721172055671    7.53597558515008
C         3.70672338744840   12.28257239558634    6.07599210369643
C         3.43973869502180   11.50728437100237    4.98938150877883
C         3.26224154364072    9.53723511292524    6.40044650864708
C         3.20779096052577   10.10830387109538    5.11282207701900
C         2.92602516933955    9.23849119693535    4.04351758130655
C         2.72130482260073    7.90079090138310    4.30703486522057
C         2.79375236200450    7.42041394196460    5.61689037510970
C         2.91083109059710    5.18327981591940    9.49279806511100
C         3.22880491926192    6.07757849463363   10.75034202079096
H         3.85222504587984    9.87437886498746   10.75802179060314
H         4.27146128697886   12.33068085367839   10.68081325877952
H         4.21590291220645   13.52334197739279    8.50130526935623
H         3.87968425558330   13.34184521718904    5.96209268175105
H         3.39837401136790   11.94413127281223    4.00327460275628
H         2.87378306333194    9.62351116137266    3.03673570688631
H         2.50383474422665    7.21129718573467    3.50720620128210
H         2.63678838554601    6.37363846418240    5.85157243745897

