80
CSD_code = BIPHUF | q = 0 | S = 0 | Stoichiometry = C31H38MoN4O5Si | MND = 6
Mo        7.85420571891874    3.40820453985101    1.81329968632811
Si        7.73647990704596    1.74157641368320    3.68828061861944
O         6.46187802761712    1.58448462646764   -0.27549627786822
O        10.41173931010001    1.92515690397625    0.86009942833242
O         9.27268063007415    5.61031767303719    3.47612027075325
O         5.28662340662219    4.69116317579653    3.00024708494543
O         7.99528329068023    5.46559020989944   -0.49875011891861
N         7.34884680901939    2.10500094192269    5.42577782860915
N         5.74497492417740    1.50111683355578    4.15682356103716
N         8.02863064618278   -0.04637995505668    3.55813549553222
N         9.67728691758650    1.18578388821847    4.11924203737479
C         6.02972990622241    1.99110567236963    5.32762782307307
C         5.03907821232350    2.36482978670365    6.35379882560501
C         4.76800551565458    1.51557991326383    7.42086946667072
H         5.30867950090981    0.58421262158666    7.51219520253902
C         3.81079459335125    1.86144908535444    8.35880198851900
H         3.60849322407481    1.19892841271280    9.18749658685404
C         3.11394611812090    3.05143031637033    8.23454020239046
H         2.36801742796955    3.31965415025504    8.96757848438283
C         3.37245169658958    3.89495735355695    7.16668231313601
H         2.82781794833156    4.82157350468964    7.06437422262353
C         4.32769831954886    3.55428209194159    6.22559075194360
H         4.53280565780388    4.20996053528465    5.39211788210149
C         8.09227313946102    2.82438537561816    6.42899141259537
H         9.11881697958300    2.80314204524352    6.05916773858114
C         7.65536924126789    4.28627931784636    6.53726571812395
H         7.58381976202383    4.72576450509844    5.54374849266967
H         8.38505586144510    4.84872200672629    7.11489941437694
H         6.68891573321039    4.37148351947367    7.02798355204773
C         8.05536851416895    2.13075923355006    7.79218454446085
H         8.28992458286938    1.07472507569424    7.67906256217664
H         7.07579839182294    2.22755273373584    8.25299770194882
H         8.79088067035791    2.58253380937280    8.45396629785503
C         4.37864310834073    1.24849592519935    3.74169319802451
H         3.74017698238371    2.04821429932496    4.14752023514475
C         4.25379793713018    1.27376799314230    2.22292254473452
H         4.87000092948098    0.50433301555047    1.76663748437960
H         4.56427408447002    2.24067452940738    1.83440621059465
H         3.21771528357971    1.10281249496676    1.94015062390393
C         3.86883312638758   -0.08278065547273    4.30731000489097
H         2.83426847456473   -0.23473221861885    4.00919555113042
H         3.91694744717178   -0.07595677334667    5.39365988382049
H         4.46365625658306   -0.91338756541117    3.93811206338574
C         9.34224820887935   -0.01549664725765    3.75097997684746
C        10.27972422923625   -1.13955665369107    3.57273143628793
C        11.07528228331364   -1.20270551732058    2.43252047926400
H        10.97358981219481   -0.44475029332448    1.66969156034667
C        11.98188229559499   -2.23628557390666    2.27703312951693
H        12.59237949590384   -2.28269025581460    1.38773908029533
C        12.10801622446462   -3.20648909429937    3.25753947408548
H        12.81646533622693   -4.01177996067417    3.13383976417743
C        11.32691595943963   -3.14037106612908    4.39889347034554
H        11.42585874952861   -3.89248040049849    5.16774169114538
C        10.41767665988271   -2.10942864814843    4.55958663290688
H         9.81104745608172   -2.05192474996420    5.45221857786811
C         7.26659771183096   -1.07910476880330    2.90238714576863
H         6.26740338225994   -0.64956112424270    2.81211139497519
C         7.78597490855524   -1.37627026702064    1.49467247103756
H         7.05680536855603   -1.97027515532297    0.94886415709934
H         8.72178707101271   -1.92858764586671    1.53058067306756
H         7.94970975302730   -0.44434345909221    0.95611523881473
C         7.16965185021157   -2.35592588104004    3.73965949663552
H         6.42003017127722   -3.01839171641264    3.31274278108251
H         6.87948912549261   -2.11196192999032    4.75910805526884
H         8.11996709773693   -2.88297106020215    3.75953567367269
C        11.05112691962137    1.54321003950608    4.41576809263360
H        11.70753124530943    1.00819964982279    3.71236006193457
C        11.28081988230566    3.03809088133624    4.22700442231063
H        11.05538339609503    3.32862215083061    3.20378509524070
H        12.32187260885743    3.27517657941519    4.43353672631642
H        10.65283151706357    3.61841484593949    4.89694882350274
C        11.44014904407602    1.10819258391794    5.83403791039877
H        11.31761617513680    0.03369342727252    5.94778933408038
H        10.82385338740490    1.60891709394698    6.57529862892310
H        12.48195638206862    1.35771284108365    6.02026339807207
C         6.93064117577518    2.21446281250043    0.55594295508437
C         9.49552560291191    2.51509330670273    1.21415216727930
C         8.78649589847553    4.73962184026371    2.91634474687361
C         6.20810307129919    4.21218660646343    2.51609561625624
C         7.94370632766163    4.70498984748065    0.35345106115151

