80
CSD_code = BIPHOZ | q = 0 | S = 0 | Stoichiometry = C31H38CrN4O5Si | MND = 6
Cr        7.83631232120851    3.36514175897802    1.80847865312669
Si        7.71560739534192    1.73674980494049    3.64672397948257
O         6.70595798853577    1.70299851391127   -0.42697346935796
O        10.26253513805054    1.95335553115953    0.71047638279662
N         7.31832424531035    2.07678539912194    5.39725607029663
N         5.72717195088354    1.50654471858426    4.10088261496861
N         8.00425668579938   -0.06458868867348    3.54641006267518
O         9.01645775953547    5.70851679122727    3.27606826667346
N         9.64577799189831    1.18596199354439    4.07469201665428
O         5.40984458508474    4.78328820054808    2.89763340420172
C         5.99823381433107    1.99099924291134    5.27977939041753
C         4.99297001182165    2.40242497570337    6.27574679985889
C         4.34255120206870    3.62387316391921    6.12471915063125
H         4.60719914850475    4.26958646671391    5.30029691409937
C         3.37048466987444    4.00690597102606    7.03183080464660
H         2.87320239609127    4.95771462344335    6.91272178869652
C         3.03472862152689    3.17471210909716    8.08704361391990
H         2.27565591658697    3.47597452686567    8.79319848186972
O         7.98226291441238    5.35194620729125   -0.43391678685720
C         3.67084820924050    1.95351953409154    8.23309848410785
H         3.40774360790034    1.29986573489487    9.05162943147202
C         4.64458081765118    1.56488377662607    7.32956978261638
H         5.13804753611110    0.60949103929761    7.43718890650454
C         8.06806639289495    2.73656906763145    6.43719613756729
H         9.10331058369297    2.66273999221623    6.09995384572135
C         7.70889315964977    4.21805366724425    6.56061496054046
H         7.73105700810992    4.68866382214035    5.58011812460236
H         8.42747958895228    4.71973077080492    7.20437191022921
H         6.71750417132981    4.34557101102546    6.98806226204592
C         7.92652337662108    4.58678477019536    0.43020517823417
C         6.29221982964510    4.18116693577430    2.45193415442120
C         7.94964636462291    2.02012624114832    7.78367041029928
H         8.12573734227810    0.95484606916451    7.65398569714850
H         6.96446125349774    2.16563053437652    8.21853429593143
H         8.69066691447213    2.41394649575484    8.47540071905393
C         4.36918373328203    1.31898545598646    3.62870655528839
H         3.75544704361867    2.16054956190890    3.98414568495281
C         4.32693163113809    1.31067964497516    2.10489406897592
H         4.94968455290222    0.51700087754852    1.70279725555813
H         4.68459504724740    2.25906280994409    1.71246270351652
H         3.30411116226767    1.15660412094847    1.76955301964261
C         3.76315411132423    0.02985166668758    4.19734319454794
H         2.73829836203162   -0.07703965363889    3.85061822244805
H         3.75785207406564    0.05974761245779    5.28414444707970
H         4.33160841658959   -0.83885896297017    3.87674341723351
C         9.32102488464930   -0.02353164588643    3.71462485895503
C        10.27504661189162   -1.12596215812766    3.49964770496661
C        11.01516954443858   -1.16838153853032    2.32142396738743
H        10.85604987149202   -0.41364933547782    1.56529803662907
C        11.94083074057139   -2.17723563157189    2.12179883826190
H        12.50813127893302   -2.20811914870078    1.20379573699353
C        12.14100321115782   -3.14248422907778    3.09492586349709
H        12.86411463360529   -3.92839489816695    2.93662714676106
C        11.41548314238603   -3.09612067040085    4.27338668365282
H        11.57283335435540   -3.84406997837703    5.03646761817131
C        10.48757128265563   -2.08999180338548    4.47888275522761
H         9.92471157696673   -2.04732738793066    5.40041691199425
C         7.22526797552699   -1.12608652950718    2.95871143117344
H         6.21493092623984   -0.71581551542801    2.91575130632940
C         7.67138504170677   -1.45148509324640    1.53248375722179
H         6.94240443482236   -2.10359704882044    1.05730412161610
H         8.63516787016347   -1.95442906824068    1.52965271950207
H         7.75203864473993   -0.53601486385018    0.95045594239806
C         7.19709284822036   -2.38054151551192    3.83385273840101
H         6.43438180772087   -3.06494700334031    3.46976650582338
H         6.96184944541671   -2.11140148843913    4.86091809086170
H         8.15490575957388   -2.89340085185677    3.81288775817680
C        11.01958088858975    1.58835147052910    4.30496200955087
H        11.65925270317249    1.09335494296052    3.55862449946666
C        11.17282069510301    3.09569304138458    4.13676644254579
H        10.90712517369507    3.39123018244270    3.12511568538907
H        12.20532493990093    3.38022981971963    4.32471684068756
H        10.53109264966050    3.63171935828115    4.82979504198168
C        11.49690615131178    1.14384443295835    5.69315108321278
H        11.42384603378371    0.06359214093052    5.79208520531525
H        10.89850283575874    1.60518602283725    6.47395568740631
H        12.53545906077580    1.43321329740802    5.83332832975369
C         7.05948624191217    2.26395630338538    0.52007903488238
C         9.37875601567792    2.52763974888241    1.18891870183257
C         8.63166467541916    4.72521273560671    2.80530993543588

