65
CSD_code = BIPNOG | q = 0 | S = 0 | Stoichiometry = C30H24N4O6Ti | MND = 6
C         6.63634300889997    0.42555228822549   10.18703052767230
C         5.53132217088582   -0.53237818758929   10.03944531881471
C         5.37192871194133   -1.17383727043446    8.80850620488547
H         6.07750679356308   -0.93801131209791    8.02408241442888
C         4.35234717233130   -2.07686607435271    8.60402249883064
H         4.24257755369972   -2.56649577359240    7.64872475724369
C         3.46585824814325   -2.35318105130468    9.63778699099251
H         2.66410646840327   -3.06053759314584    9.48624088883415
C         3.60092496462705   -1.72895592526626   10.85950847044577
H         2.91870896154843   -1.93147757188979   11.67014480964315
C         4.62933215150261   -0.81194260194507   11.08312483894694
C         8.30291170936382    2.32608686898037   12.49847887979417
C         9.31016149129432    3.37167022502394   12.53421736520386
C         9.63356749634921    4.01230877727889   13.73920715183014
H         9.11387759573423    3.73713517601308   14.64322160587456
C        10.58399971710481    5.00676269265435   13.80478879957069
H        10.80380578873802    5.48112145425499   14.74874959718589
C        11.25714754680839    5.39737901866226   12.65270467503811
H        12.00919699498195    6.17087951682573   12.70020779863897
C        10.96062529668965    4.80098539515088   11.44950230549841
H        11.46580233474129    5.09228094594258   10.53913204649251
C         9.98629550292321    3.79118234814313   11.35045920914860
C         7.75886481584782    1.77595655794629   13.78843851743095
H         6.99939442487654    2.44421531345091   14.19265947500232
H         8.55207485644446    1.65938114556182   14.52154560822757
H         7.30003752559528    0.80792203869537   13.60171740327182
N         7.86555655291156    1.88104265625711   11.36061423016316
N         6.84582445937475    0.96307530421543   11.36907416531229
O         7.37086245421673    0.70886047089710    9.17286944701621
O         9.73474302922673    3.26574250632128   10.18328329192157
O         4.70923571979122   -0.22998801723096   12.28775666837318
Ti        8.63822024037184    2.06739146524301    9.48546894223439
H         5.48038159927188    0.38476625458728   12.27176633830576
C        10.64024508499314    0.42566050922661    8.78398096128491
C        11.74529299504922   -0.53222895473922    8.93158951099289
C        11.90480920568735   -1.17352637049430   10.16259618947350
H        11.19928255911251   -0.93762996318731   10.94704099770201
C        12.92437947314863   -2.07656804931534   10.36707879247208
H        13.03425041221789   -2.56606424720477   11.32243355664536
C        13.81073826197118   -2.35305364086352    9.33324624720600
H        14.61254106111481   -3.06034386165291    9.48482550571839
C        13.67556137538093   -1.72897246223213    8.11146424129434
H        14.35770285387714   -1.93159308806322    7.30079140828062
C        12.64717291385215   -0.81193360826551    7.88785308001361
C         8.97366050497413    2.32608811625550    6.47247401476099
C         7.96654068982728    3.37178690344148    6.43670081850186
C         7.64349923839416    4.01272828658474    5.23176881903423
H         8.16304159129587    3.73735095650637    4.32772692341283
C         6.69301722638533    5.00713460901197    5.16613607759316
H         6.47329934192247    5.48154183116746    4.22217995902488
C         6.01952442486283    5.39745977091716    6.31812408939225
H         5.26765933376596    6.17113896314389    6.27063662419791
C         6.31580391994959    4.80087199994049    7.52129293000094
H         5.81054242504725    5.09211526358296    8.43163068529087
C         7.29014331365487    3.79108069206076    7.62038208832620
C         9.51782993637127    1.77600384783615    5.18252596813004
H        10.27781438221942    2.44396499361001    4.77853649096721
H         8.72476350881420    1.66005775304576    4.44918059562384
H         9.97601789564109    0.80773336661131    5.36910722542392
N         9.41092952213601    1.88100527019377    7.61035016984332
N        10.43070276174286    0.96308557431780    7.60190657559436
O         9.90582714007155    0.70911765817559    9.79817773083458
O         7.54143647786538    3.26542411977199    8.78751645937959
O        12.56712677364005   -0.23017193866270    6.68313736827543
H        11.79600003680399    0.38460865779522    6.69912665303496

