57
CSD_code = BIPQAV | q = 0 | S = 0 | Stoichiometry = C26H20N4O6Ti | MND = 6
C         1.22676015431743   -0.14047294562596   12.78803918276699
C         1.33064792942726   -1.39439829382313   13.52233711604439
C         2.29290151264228   -2.37245792859723   13.42999759581186
H         3.14423561668082   -2.35337686432475   12.78067085728492
C         1.92142842738631   -3.37421723199041   14.34890317578933
H         2.43681582014618   -4.29074202148998   14.55034931291751
C         0.76721584026834   -2.93456407362831   14.92960491707205
H         0.13642039899902   -3.36986514487321   15.67993721861259
C        -0.67029079920647    2.67413010498782   12.47034560427199
C        -1.74804052210710    2.44347627357499   13.49206333430530
H        -2.73043399156756    2.59625476953474   13.05115583447405
H        -1.62780062348271    3.13128724560611   14.32739564271362
H        -1.66207236738442    1.42412711835926   13.85983659497482
C        -0.66516180489319    3.90402922700812   11.69904078788741
C        -1.54740287412548    4.94755058804838   12.01396262589143
H        -2.21591463395362    4.83974045531670   12.85338359349211
C        -1.57805091182749    6.12036655913812   11.29248811096339
H        -2.26568714995159    6.90551750794611   11.56698131677534
C        -0.72179438251243    6.28807559989315   10.21000106309221
H        -0.74477306733838    7.20383780056504    9.63789184441640
C         0.15698291804305    5.28674116377467    9.86784071461699
H         0.83316163441961    5.39510577195415    9.03114542482559
C         0.22136137608646    4.08453962952264   10.59571281517999
C         1.55141377264967    0.43590839718763    8.63888659758201
C         0.89605869286419   -0.20511925528668    7.50605817740881
C        -0.40829866447910   -0.62371353796534    7.38647133708772
H        -1.16428401731156   -0.53907916641265    8.14019720436259
C        -0.52601934068587   -1.17134962662518    6.09330911442373
H        -1.40164595030966   -1.59747219525466    5.64838529084856
C         0.70813238176195   -1.04604900574156    5.52422323546043
H         1.07844941800384   -1.32542414606880    4.55712646833703
C         4.57648227250092    1.52617970521546    9.76333957815859
C         5.49082385656882    1.14192373631445    8.63446447910776
H         6.11960804420102    0.30342359192154    8.92882213399368
H         6.12879395693259    1.97813974154547    8.35780670172135
H         4.88172030536780    0.84419095706259    7.78461522875067
C         5.12865331658583    2.11983065472956   10.96846183168919
C         6.51585527352511    2.19012882430484   11.15793593890762
H         7.17364869469375    1.78411284565752   10.40585890846969
C         7.07068972136279    2.75025478753643   12.28770684657749
H         8.14314637744379    2.78202115718996   12.40373692931805
C         6.24505203501147    3.27351667412363   13.27588471493864
H         6.67435364787410    3.71566275201717   14.16281188052237
C         4.87828872433018    3.22777203316684   13.12417809310948
H         4.21620962405697    3.62747183159512   13.87981556779267
C         4.28387832200714    2.65051548017084   11.98790405243353
N         0.24766837224569    1.77700854136809   12.27794138175040
N         0.20800944729790    0.63770114506132   13.03638450260366
N         3.29881867645633    1.32635262994944    9.66482987901145
N         2.81552745368136    0.74617079694480    8.52285096491899
O         1.07107578341778    3.16516918471352   10.22985856650911
O         2.15298891758081    0.15009403490826   11.94037137266545
O         0.40463772135451   -1.74494920645207   14.43838831289108
O         2.98115522571373    2.64417897141769   11.88793959705398
O         0.86114526761006    0.64433095065658    9.70547640566748
O         1.56950571812426   -0.46605103825326    6.36667959292832
Ti        1.79014845149586    1.71836244242428   10.95699442881928

