72
CSD_code = BIPQUP | q = 1 | S = 0 | Stoichiometry = C27H38FeN5O(1+) | MND = 5
Fe        8.95903117203776    5.15811749508056   10.24202584736497
O        10.46392399751796    7.12460687430832    9.10103786593683
N         7.15865835101878    5.96719330181669   10.69202924535929
N         7.98751149945386    4.61663286872590    8.82118888225059
N        10.11392079958069    3.83168529813638    9.54267378486137
N         9.92500238306790    4.26120400200938   12.16678493007692
N         9.85561064567681    6.44883377413053    9.83854874965721
C         5.04734006225534    6.74049557955676    9.64181762454192
H         4.22745514989952    6.11784626363653    9.28983678866889
H         4.80196916009470    7.14487448425317   10.62050996940875
H         5.15663522394319    7.56846076273230    8.94051323762478
C         6.32403196689729    5.96846704189061    9.68475647336006
C         6.76557249490082    5.17801169386873    8.56869409875254
C         6.11390044223535    4.95952275633928    7.36437587571595
H         5.15278036386964    5.40982546587232    7.17709831121005
C         6.71286890385274    4.15524044544780    6.40054302493005
H         6.21514852425879    3.97777976491965    5.46129719231288
C         7.94978694849369    3.58698503639826    6.65095807842842
H         8.42238209203909    2.96687646859258    5.90661990863798
C         8.58366615850762    3.82674381569447    7.86796533119352
C         9.83199520425377    3.33520329821653    8.35626972305688
C        10.69076171590751    2.33931274861788    7.65554745706795
H        10.28763647472134    2.09324603042466    6.67957739289567
H        11.69942056220155    2.73269246846461    7.52934849254275
H        10.76624376297115    1.42197143507185    8.24053979156016
C        11.26366613141998    3.37661974004054   10.29105252833796
H        12.19074893774534    3.58146007823635    9.74276508773842
H        11.20196035290094    2.29129615419250   10.43606174294769
C        11.29451000295757    4.10755499204272   11.63883638776245
H        11.94132594398043    3.56868244731985   12.33937390711158
H        11.70550538427682    5.10799243284682   11.48626971332710
C         9.44487992709806    2.99910660293356   12.74768533635285
H         9.73277625326345    2.15125607547113   12.12953896052260
H         8.35809888016141    3.03910486035481   12.78708510056511
C        10.02354655766118    2.92043681377129   14.17307156712747
H        10.91354875164855    2.29354979539899   14.20301487175612
H         9.29730222128269    2.48921860312130   14.85829909146240
C        10.35927906889452    4.37679687453644   14.53137195814847
H         9.85405938329013    4.70495334647688   15.43647328267743
H        11.42973443640959    4.50672721933041   14.68434766233150
C         9.88208802365701    5.18074644627747   13.31181515840726
H         8.84438409326464    5.49452098820415   13.44757206430428
H        10.48600112419325    6.06690558192544   13.12023118920146
C         6.83673625473531    6.63587391716273   11.89781137832822
C         6.22533683185441    5.90556293859834   12.93094742466766
C         5.90651973580751    6.56315304544758   14.11030385566783
H         5.41667084858417    6.02523616013879   14.90519433536021
C         6.20369893170465    7.90220667144940   14.28165679036154
H         5.94915004635791    8.39680248482978   15.20590113879494
C         6.82253732299958    8.60527076037042   13.26695293350879
H         7.05129704144951    9.64914096367613   13.40892684615092
C         7.13988312440811    7.99479422414304   12.06119002210213
C         5.88770765225258    4.44178141689815   12.75329881633135
H         6.54676790059027    4.03682210836433   11.97107491727876
C         4.43733293578480    4.28153195028948   12.28598327666554
H         4.17785735683301    3.22673581413892   12.23475032738870
H         3.76106355773073    4.76863248664511   12.98455703458420
H         4.29047289062157    4.71776989000613   11.30272015538158
C         6.09276254965076    3.63888267473153   14.04142790541024
H         6.10334042071716    2.57395996970780   13.81812105614276
H         7.02595556937254    3.90540817351888   14.53216588027675
H         5.27895271154757    3.81587763180226   14.73935660732173
C         7.80965274546938    8.79506660029552   10.96996405242032
H         7.93579750252773    8.15596330518593   10.08911229718128
C         6.96256610357595   10.00287108718302   10.56304522308548
H         7.42122508089172   10.50634207395725    9.71582850102800
H         5.95799054383404    9.69625633407040   10.28086651877016
H         6.88362217831830   10.71673848762524   11.37800381135789
C         9.19764305844937    9.24519887284142   11.43395941016705
H         9.72575280276332    9.72919690725469   10.61642755060181
H         9.12197866273224    9.94887988643701   12.25826469829873
H         9.78175810466939    8.38818493653949   11.76566354787537

