69
CSD_code = BIPRAT | q = 0 | S = 0 | Stoichiometry = C22H28N14NiO4 | MND = 6
Ni        3.49805054934466    1.85019842684841    4.25286822243125
O         2.70681726548476    0.17313897411576    5.47595886366444
O         1.94030083069881    1.11452613323884   -1.01741144331755
O         2.88728834231198    3.62724957407280    5.43590171760720
O         8.85501339112404    2.42273836006882    2.79827759553077
N         3.68759479597798   -1.43394933989725    6.74049920825550
N         4.94332122529110    0.32034185180612    5.98255592335548
N         4.97515614740002    1.41260810922908    5.24319801214916
N         4.93709264887959    3.37991177281309    3.57086112179221
N         3.72600107294524    3.09707769366356    1.19631357767616
N         2.81106502301255    2.72947291762235    0.29129691181748
N         4.01500484152826    0.81519801292297   -0.11009819829808
N         1.34883748220080    5.26300570425457    5.11535802257765
N         1.32361417985746    3.41691421322105    3.76559819825636
N         1.91713189942196    2.28461314476366    3.44075436642062
N         3.33746808429627    0.23962460367791    2.76284129328970
N         5.99861980942879    0.46989721342202    2.56826863833774
N         7.24968627646913    0.84257156895756    2.86161391547487
N         7.00131610854984    2.66523818829959    1.48589951652020
C         3.73134602255715   -0.26302016210644    6.03163731598049
C         5.99495205609720    2.22239420358020    5.31559336239042
C         7.17194628278026    1.96852479799633    6.20783745040479
C         5.92313688545552    3.39782634285485    4.48299366721593
C         6.77784230995093    4.50074941990992    4.60348922297904
C         6.56701301505511    5.59688753303897    3.79262753205219
C         5.53584659650498    5.57362992873384    2.86363056858359
C         4.75182605677215    4.42676701418071    2.77335874333455
C         3.70719022483418    4.24789263811168    1.75164116574578
C         2.70839433562895    5.33695617364536    1.49451414663722
C         2.85875688132571    1.48693516260034   -0.31788257093327
C         1.90554752397892    4.05191588599402    4.79979406081911
C        -0.03553044933659    1.67809644042150    2.06630338414096
C         1.32069454995623    1.43242795526399    2.65390152495729
C         2.05057593597324    0.21969291737501    2.37700081103051
C         1.49272047556073   -0.91663219736521    1.77798963390957
C         2.27843163930023   -2.04040590780103    1.62406268149559
C         3.60385300386902   -2.01202749065335    2.03583121264874
C         4.10090612750812   -0.83391357262954    2.58631048509318
C         5.51618490143574   -0.65082998514111    2.94819680113239
C         6.23325766223230   -1.69824082301747    3.74722789817266
C         7.77031173564758    2.04349160359380    2.40970689944154
H         1.97464819337605    3.28191017462429    0.12053259024471
H         7.82395245601562    0.32344061550744    3.52091512464282
H         6.01912452781040    2.42748581245727    1.45468728907621
H         7.26650424056965    3.60222007539291    1.23584316619899
H         1.59329518815625    5.63729075998098    6.01713264149780
H         0.41800868398841    5.44340876223210    4.78158467930063
H         4.56894107729592    1.07184957503438    0.69573655022059
H         4.04040458837091   -0.14348371008848   -0.41190600801831
H         2.77040859112265   -1.75775150411253    6.99907529143078
H         4.43615588020786   -1.60998089029791    7.38768408316325
H         7.17210796363230    2.66414615069162    7.04634539519780
H         7.10868815699228    0.95673389840765    6.59942990595898
H         8.09940784877293    2.09689015033584    5.65117800810438
H         7.57429847982588    4.49594112140872    5.32804384342513
H         7.20277868467345    6.46615864330292    3.87509147265423
H         5.36621229399087    6.40876689739190    2.20245777027776
H         3.00346490623887    6.25325290282737    1.99539292013556
H         2.60218817695575    5.52634155004656    0.42586898422933
H         1.74070153330445    5.03006959971139    1.89639034370996
H        -0.32820480469030    2.70541325908822    2.26588685486417
H        -0.77264555507320    1.01399755988732    2.51614970004529
H        -0.01567875990816    1.49704253763814    0.99210563395676
H         0.46441223003563   -0.91429904064362    1.45875758774564
H         1.86847844072263   -2.93531273894485    1.17929045559091
H         4.24436048147122   -2.86945895595749    1.90209587554169
H         5.65084537082084   -2.61290812349785    3.78972456934167
H         7.21396848678863   -1.91336397860425    3.32183473703594
H         6.36298889119362   -1.33459610551342    4.76854907365368

