73
CSD_code = BIPROK | q = 1 | S = 0 | Stoichiometry = C27H38FeN5O2(1+) | MND = 5
Fe        0.12914583487547    8.65703268958744   14.36710304107322
O        -0.24745271774276    4.09240991467165   16.55338682454709
O        -2.03636405437409   10.01072566270596   13.41344375291790
N         1.49312621231428    9.66566875635798   13.74937764285341
N         0.37997652751282    7.85936164218564   12.66646393901411
N         0.71960049006780    9.56744603709182   16.07518038904108
N        -0.30544920455796    6.37706898606236   14.77797122412864
N        -1.29914991071291    9.35514557399630   14.04360804751764
C         1.82198142124396    9.59489155917697   12.41786681934782
C         1.53491148930844   10.56969791673968   15.87630220477293
C         1.17720207053976    8.47160159635828   11.81613475343655
C        -0.98558365203129    9.92181131822025   17.78970761613924
C         2.01878988212034   10.66172277708822   14.52520647430775
C        -0.26422958901202    6.61314528422016   12.31873370961084
H         0.48917023554546    5.88211665308501   12.00087140611315
H        -0.95505783643748    6.75517070791268   11.47928047161534
C         0.19641921639731    9.29876282248077   17.36344958464229
C         0.86553052002147    8.38211737044393   18.19315443934677
C        -1.44376936528986    4.81121215506751   16.36955269162360
H        -1.97073198392742    4.78029698905501   17.32394853663819
H        -2.06658741104312    4.32371775285246   15.60489293291259
C        -1.72061632458776   10.91405960526263   16.92029363752246
H        -1.16919157004209   11.04029036106120   15.98192215617680
C         2.89082581874464   11.59858566407189   13.99196595073854
H         3.29795738558600   12.37846433027196   14.61454379423210
C        -1.04527567892259    6.09506582684815   13.53455524995626
H        -1.99768812400981    6.62657248954815   13.59512317420508
H        -1.25483069854494    5.02763608523320   13.40255863660393
C         0.87369790440228    5.51073930550321   14.93662048794882
H         1.50092689076407    5.95255087411711   15.70972471917935
H         1.43763260618060    5.48641477931266   14.00495575716783
C         3.23251775233354   11.52350521347202   12.64555993925164
H         3.90947566598072   12.24604884633580   12.22007055484185
C        -1.14450099609658    6.26506227227678   15.98135271707300
H        -2.07523710414742    6.81191987365546   15.82306595033949
H        -0.60087701315777    6.73746962087434   16.80418231333871
C         0.33749458736892    8.11428263990026   19.44812183922664
H         0.84648400099676    7.42765234449360   20.10405763359985
C        -0.83085072240041    8.71766580038580   19.87351032682860
H        -1.22660346850576    8.49638582749444   20.85224299915247
C         2.69708914734025   10.52166157502740   11.85513926696790
H         2.95116882579668   10.46210569424013   10.80932114434029
C         1.91792145719291   11.57225196760583   16.91278815809127
H         1.46455505355021   12.53226188164594   16.66371014817191
H         2.99658781218789   11.71452146919121   16.93443660313032
H         1.57107860035147   11.26857219044326   17.89722748211671
C         2.15989470773586    7.73121791676840   17.75759019321909
H         2.21187985753273    7.78077900628687   16.65971309314132
C         2.25853575588146    6.26703316564426   18.19878318559350
H         2.47129924905397    6.20006305937302   19.26213124458980
H         3.07792842736257    5.77896703055902   17.67460573001062
H         1.34166010391936    5.71559015264788   18.00270848642746
C        -1.48499383348361    9.60949162126837   19.04668529705007
H        -2.39219380498351   10.08117894030255   19.38828285886986
C         0.51450428760967    4.08209783001530   15.37018359203990
H        -0.03234550688590    3.55394580642772   14.57463442000770
H         1.42373183865559    3.52333424142636   15.59613445894884
C         1.41350800907291    7.99911853058730   10.42292626236902
H         1.87697663993665    7.01181949101276   10.42695910396423
H         2.06176959186824    8.68067880769671    9.88369879574339
H         0.46805391984010    7.91633564137467    9.88709399899414
C        -3.11765830171329   10.38571885007069   16.58391921924933
H        -3.05288112566967    9.39007150518042   16.14834823089708
H        -3.60285781499406   11.04519986054451   15.86898370013892
H        -3.73774936302933   10.33042489585010   17.47414478854077
C        -1.81752118205646   12.28103145039754   17.60234248445214
H        -2.42892638470132   12.22605773651150   18.49859199611437
H        -2.27195665539726   13.00021866722492   16.92562298796391
H        -0.83283380610119   12.64605670309738   17.88481859751042
C         3.35529261496444    8.50460760967077   18.32559824934899
H         3.39384631860257    9.51612657712020   17.93297586211325
H         4.28222705475939    7.99986024235294   18.06397300192070
H         3.28738941904137    8.55800395695670   19.40956301897878

