57
CSD_code = BIQCEM | q = 0 | S = 0 | Stoichiometry = C28H20N4O4Ti | MND = 6
C        -3.54244224123760    3.10821606027287    4.64783051545555
C        -3.56406313027877    2.04824717795409    3.62509994219006
C        -2.37391133565496    1.40529964358671    3.28919831468672
H        -1.46318508141196    1.70702886506963    3.78750367495307
C        -2.37248516425296    0.40214200563460    2.33873701179665
H        -1.44926959825233   -0.09594519401935    2.08121474176689
C        -3.55506027408686    0.03460605534660    1.71665638228820
H        -3.55279602066467   -0.75017324218239    0.97432517496316
C        -4.74151743470151    0.67253925641719    2.04665256569468
H        -5.66090452820799    0.38301257542756    1.55919827892172
C        -4.75109693784449    1.67542877343270    2.99689760944495
H        -5.66205245441878    2.18330162236473    3.26951882683024
C        -5.53391012262053    5.20477348625901    6.42636664935844
H        -6.51425153320962    4.94193740681847    6.02036372686074
C        -5.47130538220793    6.19011113647106    7.46466866681103
C        -6.64838061703652    6.79950094807943    7.91978825873516
H        -7.58627127964574    6.51508170894829    7.46414655877872
C        -6.62694009727450    7.74105734563137    8.92346795065029
H        -7.54384493610233    8.19961381613924    9.25995418249741
C        -5.41311327974611    8.09822261113596    9.50428125709750
H        -5.39209281236893    8.83536326738362   10.29349627978859
C        -4.23745387950024    7.51978028329231    9.08099535031348
H        -3.28984292165808    7.78992946242527    9.52562954241933
C        -4.22599593254330    6.55732747520932    8.05563231683701
N        -4.49395966517781    4.60509774615323    5.95633487355232
N        -4.67954065615053    3.66664234411820    4.98711642138575
O        -2.42314973233976    3.45087611782032    5.18222070180312
O        -3.10017155023425    6.02778521784920    7.66437813545365
Ti       -2.54649232909054    4.80740711589245    6.48787359030303
C        -1.55055496953227    3.10824313421209    8.32795556223785
C        -1.52893972292045    2.04828762594069    9.35069992311142
C        -2.71910561127310    1.40535233858735    9.68660649270163
H        -3.62980308108264    1.70703250529547    9.18823777652562
C        -2.72053903693198    0.40218212277061   10.63705349651108
H        -3.64372310614048   -0.09597169954025   10.89449501592096
C        -1.53795120848743    0.03461543232923   11.25911082396229
H        -1.54021459194496   -0.75018328818140   12.00142144032479
C        -0.35147911369707    0.67253592588044   10.92910978211191
H         0.56787896955641    0.38305673661170   11.41662280590498
C        -0.34189922836031    1.67544768780687    9.97888784112947
H         0.56903186050729    2.18337685014660    9.70633644149435
C         0.44092137401363    5.20478605189740    6.54941299038010
H         1.42125911780080    4.94195927881197    6.95542965108809
C         0.37832326710393    6.19011449974943    5.51110170345397
C         1.55540191573392    6.79949525851220    5.05597961952607
H         2.49329350172883    6.51505924692365    5.51160940351385
C         1.53396445865257    7.74106510327077    4.05231243259197
H         2.45087313412218    8.19960817694324    3.71581922512097
C         0.32013621679396    8.09826297178439    3.47152215455662
H         0.29911652066199    8.83542625056498    2.68232857244852
C        -0.85552652840694    7.51982824190373    3.89480963057453
H        -1.80313921922507    7.79000171135780    3.45019389027986
C        -0.86698489468008    6.55734533942833    4.92014464096220
N        -0.59903229364079    4.60512267212358    7.01945324772224
N        -0.41345759357789    3.66668586868060    7.98868892243508
O        -2.66984037960841    3.45086828304132    7.79353164381366
O        -1.99280882924247    6.02778458421691    5.31137736796021

