83
CSD_code = BIQDIQ | q = 0 | S = 0 | Stoichiometry = C34H40Cl2N3O3Ta | MND = 6
Ta        2.42293057367500    2.84032130268008   18.78256594957328
Cl        3.51601714448787    0.88909865561958   18.30446742778190
Cl        0.38050894237646    1.81294964205264   19.06322878440437
O         1.78319504134184    7.52698339051374   14.13581482023874
O         0.45320807559160    6.11907151658464   24.11470651661387
O         4.86880983884420    3.71381524958521   18.67317152619085
N         1.72313266097627    4.72377240477570   18.90386364839584
N         2.37586948699347    3.50364981327993   16.85887531556461
N         2.63335753198100    3.30402278138282   20.76022718565141
C         1.73246491301936    5.53670551452663   17.79605823857951
C         2.07254541554962    4.81679148798720   16.61951280576953
C         2.06571287180867    5.44845203505213   15.37517542351575
H         2.26890953034175    4.86097610744296   14.49426775422507
C         1.81341407245113    6.81019276131966   15.29814891774242
C         1.60464294949735    7.54236177781875   16.46945657944151
H         1.46566828707526    8.60795389908731   16.38833964522993
C         1.56358939142992    6.91802634476109   17.69934494389513
H         1.42936778091132    7.51487434727220   18.58585442856755
C         1.95493512700097    6.83885425389252   12.92235816170918
H         1.85321440996753    7.59007169734452   12.14048883217501
H         1.19079442033014    6.06701962027210   12.78513216861237
H         2.94705508917129    6.37955158473933   12.85502802563181
C         2.80000376219096    2.69578781137418   15.78893234343953
C         2.08827652551758    1.54217139500068   15.48008583167986
H         1.18932408112098    1.31563027762152   16.03919481621185
C         2.52969232302509    0.68736379360396   14.47890805175354
C         3.68970137515392    1.00387682414145   13.78747982650999
H         4.04398785352126    0.34283098988234   13.00916025624479
C         4.41570337720887    2.15290708525885   14.08105771921142
C         3.96413527035312    2.99708115944064   15.08157179917814
H         4.52129971109118    3.88712929015427   15.34005317969842
C         1.76207048305837   -0.56322982517128   14.17727563619515
H         2.14851421343848   -1.05603877729488   13.28875083451383
H         0.70816307634439   -0.33726758938096   14.02635741961315
H         1.83629451693351   -1.25311381864060   15.01712719624307
C         5.68322867931899    2.45377455430703   13.33754444401492
H         6.01233911354856    3.47331705965460   13.52283487892794
H         5.54147391302258    2.31877388276715   12.26688577575618
H         6.47366410595658    1.77446288411652   13.65695554183302
C         1.33378899414322    5.16278679011489   20.16245952187232
C         1.89836723344331    4.38624869710966   21.20034433648337
C         1.62821111394180    4.68558092064178   22.53279821270951
H         2.05770234996521    4.06137867026082   23.30024669817140
C         0.77483349146417    5.73693853841443   22.84355394144551
C         0.16680479395199    6.45947674988208   21.81778265301921
H        -0.53111446857453    7.23691238292005   22.08172376286429
C         0.43416146585704    6.17026949765650   20.49321074236954
H        -0.10251196667518    6.69516710008909   19.72033880272465
C         1.00113361272816    5.39696841585028   25.18868975604978
H         0.61851580494005    5.87355203299961   26.09009049343393
H         2.09543799832905    5.44474895586580   25.19093353123386
H         0.68591274356383    4.34853520979948   25.17265818226054
C         3.57537056383911    2.72464190564851   21.61024701986526
C         4.45646061696175    3.49698261937158   22.37483333435208
H         4.37039312204464    4.57377539066426   22.34868142585143
C         5.43731725626588    2.89770543616990   23.14461844508610
C         5.54228512625516    1.51041363049823   23.15419535187231
H         6.31179414116648    1.04353612163710   23.75243812125404
C         4.67261487837673    0.72215308848816   22.41514779401696
C         3.68948375584886    1.33545026164967   21.65156347590178
H         2.98910991165307    0.72991271085482   21.08943079908884
C         6.38796735824801    3.72561345408568   23.95822397097816
H         6.29529877160087    3.47876521735767   25.01516356771258
H         6.18880250816759    4.78698079708049   23.83222186276604
H         7.41693548176287    3.52528988570775   23.66155696668713
C         4.76728564107868   -0.77327035124070   22.43758089401343
H         4.70537254394951   -1.17061914918435   21.42643701347298
H         3.93989012958348   -1.19169222504895   23.01044085567138
H         5.69936909012594   -1.10064897024053   22.89138071478648
C         5.12611510245911    5.08487171097482   18.38318283039720
H         4.36696261318584    5.38808938642866   17.65700381027615
H         6.11576323270940    5.18698338217761   17.92489840715936
C         5.01664764883822    5.95648443293476   19.62828504768076
H         5.17855385976494    6.99749096705745   19.36337207509810
H         5.75359972494192    5.66253772334579   20.37249484989367
H         4.02204131056918    5.85355731567005   20.05599705698954
C         6.01392478075396    2.93456125618232   19.00645352405949
H         5.63673879048492    2.09597451200085   19.59616859261507
H         6.69634708909565    3.52235211219122   19.63118281399182
C         6.71672200257040    2.41061387341895   17.75912440645247
H         7.54031442045829    1.76416250103110   18.04729920556341
H         7.10732154357556    3.22487074317194   17.15266762310062
H         6.00853788085512    1.83922311358578   17.16351485807568

