52
CSD_code = BIQDEM | q = 0 | S = 0 | Stoichiometry = C20H26Cl2N3Ta | MND = 5
Ta        2.42455401104388   -0.03349226941554    3.40939891942661
Cl        0.60546218996390   -1.23138845001643    4.14439510661051
N         2.33911794667603   -0.12761201016470    1.39697703643473
N         1.36160059840435    1.59922383817091    2.88045775491474
C         1.42659551790430    0.68858614350256    0.74274051720885
C         0.91961105799433    1.71854935214196    1.58013726315250
C         0.03861822666775    2.64392687132434    1.02390898940148
H        -0.34458741820020    3.46543077751960    1.60479334088912
C        -0.40678395671136    2.52352151398663   -0.28684384991733
C         0.00998713982060    1.44172154834422   -1.04743193158946
H        -0.37826364826468    1.30493792926898   -2.04554329435897
C         0.91826216513784    0.52854271834331   -0.53818132535785
H         1.18734734236695   -0.33668588457961   -1.12181003123746
C        -1.33792493016654    3.54855379473873   -0.86314472183858
H        -1.91544765377810    4.03794404714742   -0.08244655145638
H        -2.02312892219419    3.09111368566400   -1.57289135301277
H        -0.76876566472022    4.31372864035489   -1.39243207100817
C         0.95953506029370    2.55845825972292    3.90606922441617
H         1.45267683019578    2.22409137668310    4.82901044174799
C        -0.54611740542620    2.50046788617052    4.19677368002997
H        -0.84176930200363    1.46182664937024    4.33809566422466
H        -1.14206697443988    2.91764146310634    3.39282874502565
H        -0.75871248433390    3.05203103522795    5.10959992172035
C         1.47907798749452    3.97604173764401    3.63858911369344
H         2.55576427938593    3.93924952808283    3.48075336981397
H         1.27474516331639    4.60420200882709    4.50242329977668
H         1.02224029197262    4.42738379951940    2.76469755904431
N         3.65583763058436   -1.54856210050997    2.90059552526519
C         3.29907608549727   -0.85559374122355    0.71837784353467
C         4.02236455275517   -1.72121524489222    1.58693272877450
C         5.00291640722258   -2.54800081689297    1.04151358119848
H         5.56761965093194   -3.22098691585801    1.66476302635562
C         5.31733807226933   -2.49915843418468   -0.30969341693124
C         4.66947273815405   -1.57811573710220   -1.12193720205919
H         4.94646470060328   -1.49590106275017   -2.16236567271349
C         3.68037244158492   -0.75443958547727   -0.61500516179196
H         3.23271745703821   -0.01186567981887   -1.25435321331769
C         6.35808587284272   -3.41494956814470   -0.88167334161167
H         6.99328991172781   -3.82483406588289   -0.10029283494375
H         6.98137095551762   -2.88778570181718   -1.60081670958082
H         5.87938044794676   -4.24554074444726   -1.40124226468631
C         4.05453443279322   -2.49766966622846    3.93622761380223
H         3.47165015716856   -2.22023877597259    4.82727035587627
C         5.53099405779479   -2.35673159113391    4.32463570104122
H         5.73773719760419   -1.31781045879474    4.57785799126021
H         6.19697673738427   -2.65065412736327    3.52030238041318
H         5.73914592283546   -2.97490344532001    5.19461048400331
C         3.64486322278601   -3.93535647378070    3.59923955572535
H         2.59481451167293   -3.94767476609765    3.31304274226637
H         3.77543465264007   -4.56227876197255    4.47803187526803
H         4.22753814962799   -4.35192736037812    2.78512077967766
Cl        3.47897658461705    0.58419883556539    5.31913281549298

