72
CSD_code = BIQFOY | q = 1 | S = 0 | Stoichiometry = C36H29ClN2OPRuS(1+) | MND = 6
Ru        1.69275706515359   13.45048585644347    2.49204606673035
Cl        0.68238003790933   11.34032595931754    2.99550793209224
S         3.00829206156844   12.37401137948036    0.79768442426376
P         3.50535241492745   13.03224320765978    3.99090406784830
O        -0.79538108091747   13.52407001697615    0.81698516147684
N         0.95682711311826   14.80966789493083    3.91826434351768
N         2.54880646116422   15.10280176085308    1.87669528025987
C         0.17167697604724   13.57035776306195    1.41334501531551
C         0.04313210902729   14.65527063567660    4.90681376824708
C        -0.84119844301462   13.55787057860323    4.89793509282492
H        -0.80497013628104   12.86418253490347    4.07041950601922
C        -1.73963143751618   13.37980593307867    5.91547079005597
H        -2.41321066857698   12.53747695387599    5.89142112073911
C        -1.80126490041116   14.28475301977536    6.98540511360644
H        -2.50816731620017   14.11996532462983    7.78349864614383
C        -0.98899959262745   15.38685618034152    6.99931009240746
H        -1.05260499760621   16.11161510259110    7.79668260768124
C        -0.06948233979976   15.61327447495385    5.95976119022600
C         0.73152886956578   16.77446385878013    5.89984486132084
H         0.66572798671245   17.50481792967745    6.69164954008941
C         1.54625256704959   16.96806903583064    4.82478710574790
H         2.13872676225128   17.86198164993743    4.71365878996981
C         1.64896601322731   15.95834959748611    3.84009148659501
C         2.47429046920123   16.11754257413885    2.68443107013758
H         2.97595923022148   17.06087285747997    2.50549537604930
C         3.20729823260751   15.13269377512782    0.64985544454273
C         3.60240856647673   16.31228811073750    0.01129278638900
H         3.40719819004392   17.26754274447030    0.47177152651675
C         4.21298716212852   16.27224811000682   -1.22713543723709
H         4.50418065813465   17.19452680764036   -1.70448449962332
C         4.44523057982801   15.06061206056350   -1.85946399606350
H         4.92327462087947   15.03290457283286   -2.82546894410743
C         4.06202525468975   13.88060038026922   -1.24498675428406
H         4.24582458924290   12.93135712270723   -1.72314663304709
C         3.43733209111861   13.91589498017052   -0.01067163690087
C         1.91238240914651   11.60146188383129   -0.43058170804315
H         2.51442461002853   11.05033710246568   -1.14742756546831
H         1.31219166287432   12.35813353914971   -0.92630163375105
H         1.27835705880595   10.91386911530599    0.12590115261839
C         3.14099241540936   12.97450426527027    5.77035563328455
C         4.05923340851320   13.36798538070968    6.74063351364721
H         5.02725299067601   13.75494788923455    6.45661852795894
C         3.73079137202092   13.25603355361158    8.07906824199397
H         4.44243173256236   13.56436634125273    8.83019624309364
C         2.49993459855366   12.74312973522639    8.45822486650638
H         2.25122376662858   12.66190017572816    9.50526584172125
C         1.60117096295616   12.31557382680524    7.49522983713278
H         0.65252446635467   11.89074505386610    7.78639156809277
C         1.92191906808686   12.42248494910871    6.15431162747030
H         1.23974728285609   12.05800390410061    5.39879304662863
C         4.71937097296662   14.36920060073007    3.76443730776827
C         5.57552337725922   14.28375028354344    2.66665969622054
H         5.58612006247283   13.37935166894522    2.06975349511627
C         6.41575176486308   15.33484193298089    2.35251618233441
H         7.08208224315477   15.25588100543166    1.50685524596448
C         6.40248069461748   16.48746266291766    3.12344461371599
H         7.06206273361909   17.30637196632506    2.88113503748166
C         5.54415814440123   16.58539475305573    4.20596917412171
H         5.53353820218064   17.48151667559299    4.80846769274332
C         4.69446849124517   15.53777436423817    4.52048390367261
H         4.02041881487515   15.62338481460691    5.36224917996532
C         4.53145200384604   11.53731765353038    3.82053356735115
C         5.83844553578657   11.53403822601245    4.30437663882365
H         6.26556023904648   12.43347121982885    4.72514992071041
C         6.59415962913746   10.37966920911009    4.23456269121759
H         7.60764982938924   10.38115899349764    4.60649628558138
C         6.05342787919231    9.22289131143576    3.69428450038989
H         6.64773347388209    8.32342216893105    3.64489303389196
C         4.75094833855032    9.22084398987821    3.22496907369942
H         4.32426965618143    8.31929631125943    2.81252988862995
C         3.98733495821500   10.37333870859934    3.28853571733368
H         2.96433998029835   10.36394401886185    2.93774765482814

