87
CSD_code = BIQHUG | q = 0 | S = 0 | Stoichiometry = C43H34BCrO5P3 | MND = 6
Cr        2.40420224845791    2.67305908399184    8.29578245694867
P         3.61923778396064    3.22517784401180    6.15396254035192
P         4.56431333355158    5.14493133464161    6.02481920379459
P         5.50134495794538    2.24994892095935    5.81793482245571
C         1.42537270584547    2.20947315783421    9.78014164983237
O         0.80438803394136    1.91976680102269   10.70874544027797
C         2.48109732015389    0.84604332159174    7.91613501499449
O         2.39363506539293   -0.29764164469352    7.82268321942200
C         3.88343401281119    2.55429724000992    9.43020204657365
O         4.62885817853006    2.47209882800362   10.30524770282366
C         2.09033726426014    4.43940819523733    8.79948166680528
O         1.73063764926383    5.44785786083131    9.22785707559806
C         0.76512577593412    2.81827168925084    7.41520405850837
O        -0.32707582847555    2.92352043635004    7.07051269849183
C         5.21667759711807    5.41269787363526    4.36640966589240
H         4.34411906526165    5.64842467053260    3.75104231443635
H         5.81347586745322    6.32958639932812    4.40905285565232
C         6.73451133545306    3.21584687705592    4.92238059308356
H         7.27370622749662    3.81122402956918    5.66223739712618
H         7.43130401177071    2.47472325072374    4.51877020820351
B         6.07226820227606    4.13198942727415    3.70130640222381
C         5.82773101607056    5.55586592152662    7.27496980977314
C         7.09599730339997    6.01675743043427    6.93656951289568
H         7.36257495859807    6.17824177844417    5.90235082450494
C         8.02190515453713    6.27030105711767    7.93464211909798
H         9.00616633303919    6.62771406814157    7.66988334104826
C         7.69171841859318    6.06603951948594    9.26485544639352
H         8.42091484214665    6.26048286106681   10.03693360872468
C         6.42448750891215    5.61720189274266    9.60404767816283
H         6.16013943421431    5.45998502179662   10.63855592357226
C         5.49543615566539    5.36362587715633    8.61314857460924
H         4.50252135433847    5.01453574123114    8.86766449208344
C         3.20687416143733    6.29480439631827    6.36731607818743
C         1.92987142384391    5.95930836288762    5.92792702694736
H         1.77460399602915    5.02672265820175    5.39799747725319
C         0.86812590371254    6.80844734680042    6.17463028761651
H        -0.12398482575141    6.53889495408067    5.84525309425602
C         1.07794331478626    7.99837017356566    6.85369439059500
H         0.24666538757658    8.65627790688058    7.05687471550706
C         2.35165363995257    8.34409670860421    7.27414534904280
H         2.51422154811231    9.27307099199488    7.79994233907230
C         3.41840525756446    7.49775390171589    7.03125113455417
H         4.41207420745765    7.76252535954174    7.36577817392338
C         5.12406942089574    0.72434487699101    4.91799738970706
C         3.82153830191821    0.38501472145632    4.58413881743131
H         3.00960958595831    1.05411278458855    4.84103590739869
C         3.56760771343369   -0.79874525040259    3.91558134888114
H         2.55326312440584   -1.06039092010696    3.65565864440816
C         4.61142713907392   -1.64390823919401    3.58025099876324
H         4.41193827847204   -2.56501436352092    3.05358096914407
C         5.91311596669004   -1.31177429573859    3.92215549679990
H         6.72630157345211   -1.97403420632547    3.66465444529108
C         6.17091534129703   -0.13356524493457    4.59511031964098
H         7.18333907228123    0.12432427463685    4.87678856200879
C         6.21358176069473    1.62530926949474    7.38130311683597
C         7.12911714791652    2.37559637007288    8.11112479482351
H         7.49046973008018    3.31995916943598    7.73116636800501
C         7.58743500199587    1.91561533350332    9.33198662789573
H         8.29567950545181    2.50719734596684    9.89286594233285
C         7.13464643091343    0.70796043867996    9.83586231302878
H         7.48815667578400    0.35503668558200   10.79260853820103
C         6.22343324851508   -0.04462385105027    9.11241320372740
H         5.86659648808630   -0.98629846066790    9.50173863365474
C         5.75916379815215    0.41186606233696    7.89332468503549
H         5.05377620820642   -0.17890290277218    7.32556531065817
C         5.16077211222562    3.12592124160688    2.82391097700569
C         3.77276119466673    3.16495283779738    2.71992968449909
H         3.21419648367387    3.94197057304990    3.22629101202150
C         3.06374322882852    2.23756213887953    1.97527232103671
H         1.98502637275894    2.30130479188580    1.92060790019350
C         3.72960551617550    1.23194946662130    1.29972488610680
H         3.18039163496296    0.50495550223426    0.71802779724727
C         5.11113487050371    1.17508167411582    1.36907535714855
H         5.64677340997163    0.40062635522098    0.83677364971530
C         5.80460431855632    2.10761757126087    2.11556764290512
H         6.88523547853026    2.05765269440320    2.14088411017752
C         7.23010662187847    4.80039437893051    2.79140671504174
C         6.92434671789453    5.23303496275986    1.50091876189000
H         5.92397303921036    5.07214962458994    1.12340170692016
C         7.86188216006645    5.84857057039216    0.69250158908029
H         7.59047584352975    6.16820384620923   -0.30444402553397
C         9.14998818507284    6.05537573552898    1.15645307849131
H         9.88833077466347    6.53455968989650    0.52890663234704
C         9.48163427605172    5.63927553701879    2.43306403769433
H        10.48524625518291    5.79343173895241    2.80763410929648
C         8.53236887702961    5.02507583138147    3.23236977292071
H         8.82730381232063    4.70892411229300    4.22496941882738

