110
CSD_code = BIQKIV | q = 0 | S = 0 | Stoichiometry = C57H44Cl4IrOP3 | MND = 5
Ir       11.23229790393927    4.22684275686759    3.42882663892267
Cl        5.70982708331320    0.89564546043289    3.18216890318150
Cl        9.30669128756921   -0.15462873130174    7.00931619452696
Cl       11.24894947668956   -1.96758289433629    3.35115288251625
Cl       15.53410490852973   -0.84428458456592    6.36209290727921
P        10.87829313366342    2.78215092465276    1.65736445650249
P        12.03695250512789    3.80008181282966    5.56858551960205
P        10.95544042011774    6.56693144917730    3.00099875943685
O         8.55356396516039    3.60703727395823    4.67670362864607
C         9.54848139034379    3.88786111856974    4.15211072582018
C         9.69406700908032    0.75541274238628    3.13204250034071
C        10.00923414390002    0.48289956705635    4.47050965189975
C         8.96082210154522    0.31114599308604    5.37586257618224
C         7.63506083543082    0.45474304070705    5.01001146344365
C         7.34898274838635    0.72986544053809    3.68345879628919
C         8.36078428358109    0.85571418834354    2.75090167773671
C        10.75098849142431    0.96762560109783    2.10047851129300
C        12.04160397205064    1.02515151288980    5.88607520042763
C        11.39832104180154    0.23431502240605    4.92466635316584
C        12.05608575803544   -0.90560144516200    4.45667075645109
C        13.33064898572867   -1.24912401227719    4.86917109952571
C        13.94996570036600   -0.44707895553820    5.81285856113715
C        13.30928480363852    0.66167268454163    6.33071567538880
C        11.42581363959631    2.25970429197706    6.44958591882336
C         9.39155473451960    2.93765063836019    0.59739655686152
C         9.31031423790730    2.28307708169013   -0.62839231178478
C         8.17252678739744    2.40115525308274   -1.40457036449375
C         7.10431239391820    3.16771509170078   -0.96490419022008
C         7.17753660256592    3.81958547496936    0.25443319251590
C         8.31860946510237    3.70677948349367    1.02863376241932
C        12.15702559640592    2.73483293026907    0.35855550190484
C        12.15384596960576    3.80370493000165   -0.53600125549733
C        13.12883709703858    3.91171012515843   -1.50687163662582
C        14.12918334793095    2.95560905993937   -1.59137256015388
C        14.15024006562302    1.90204104838909   -0.69393421416763
C        13.17423038177860    1.79189207428738    0.28272276243983
C        11.48942387171264    5.07198296391977    6.75731141430966
C        10.30825561774655    4.97801174421151    7.48704903744607
C         9.86784152954926    6.05529121893041    8.23749544931240
C        10.58828691324412    7.23724475794070    8.25741075735112
C        11.76152581996636    7.34130090816821    7.52572217677922
C        12.20546493068577    6.26857054575533    6.77925459203881
C        13.80802501777582    3.65701259992638    5.98157762738574
C        14.66777870034449    3.18400630683960    4.99829084726621
C        16.00110452507026    2.95573976887944    5.28766552099103
C        16.48347786658983    3.20144389079054    6.56213445815598
C        15.63105390440847    3.67871809725186    7.54575108050255
C        14.29628534852678    3.90167717786348    7.26182473829957
C        11.07363388530570    7.00608754782393    1.23243514902533
C        10.00924239165913    6.64881086454702    0.40513557408753
C        10.07537337541346    6.86161123643337   -0.95778541989769
C        11.21483843280251    7.42135560340927   -1.51626706980598
C        12.28183524131712    7.76262661174492   -0.70292082587907
C        12.21607564381333    7.55631930223615    0.66439806749266
C         9.40366681267604    7.39721967418689    3.49610195697434
C         8.74007898051792    8.35017086804835    2.73060857888583
C         7.58574966853743    8.94299034820619    3.21176803353802
C         7.09111700910561    8.60422951766157    4.46050824213510
C         7.75710918579381    7.66768069635950    5.23461237998625
C         8.90315076109931    7.06620000381590    4.75158409971972
C        12.17160429818839    7.72660092674369    3.72951221773526
C        11.81915656107078    8.96469345117382    4.25420565827616
C        12.78620932298015    9.78487068869416    4.80929214070440
C        14.11095723948768    9.38434048677439    4.84276627396568
C        14.46954967188142    8.15171067830851    4.32050474774882
C        13.50511830543167    7.32623371805969    3.77414957975028
H        12.67764676337490    4.40999474765965    2.86263084289204
H         6.84856148468260    0.33491849312237    5.73685345308209
H         8.11153126533874    1.03109793987988    1.71655273432983
H        10.53503080555992    0.39441272236266    1.19472051444237
H        11.73023159784344    0.69261703877058    2.49417850152422
H        13.81381020980499   -2.13076637124512    4.48162903862502
H        13.79729033347084    1.24461992399142    7.09530506635763
H        11.67861610029422    2.35959268878447    7.50892245268277
H        10.34319169959789    2.25289678885482    6.32659820990225
H        10.14251075371778    1.68476768272982   -0.97447102802373
H         8.11648055787584    1.89195745152575   -2.35587489355082
H         6.21627459394470    3.25567653339673   -1.57326695102228
H         6.34617832723364    4.41547668906677    0.60239001546689
H         8.38346588577784    4.21226737610326    1.98327511794083
H        11.37615792226617    4.55130715822218   -0.45752937815486
H        13.11081115793825    4.74495642179561   -2.19453194846228
H        14.89466169897785    3.03613012445983   -2.34933619223094
H        14.93464893138247    1.16069999292173   -0.75018667932587
H        13.21764285290743    0.96867735283896    0.98073524376234
H         9.72074636881587    4.07166363953580    7.46714448886986
H         8.95126146593299    5.97120494797841    8.80375766472873
H        10.23492132716930    8.07689668444997    8.83742639306341
H        12.32687460406283    8.26175349553348    7.53080510051649
H        13.11418719170179    6.34592313238335    6.19780524394415
H        14.27550896122323    3.00489250716111    4.00646562027346
H        16.66406193388937    2.58278220963058    4.52081883254210
H        17.52312252603540    3.02056262778255    6.79215771143085
H        16.00723833738025    3.87026291263733    8.54051719055425
H        13.63185834563817    4.26486501421832    8.03440176516176
H         9.12840773601828    6.19603264854278    0.83966604499783
H         9.24178368633404    6.58163601298628   -1.58638222564526
H        11.27010521177520    7.58562132113813   -2.58247449586716
H        13.17370891676746    8.19317779620985   -1.13514936861059
H        13.05490474369873    7.82406561311188    1.29023556274029
H         9.12652515204786    8.63450385713173    1.76222616605669
H         7.07294651607652    9.67889849397923    2.60893229822888
H         6.19014880105447    9.07155222329232    4.83017446217001
H         7.38228914240419    7.40340671001984    6.21260399030862
H         9.42763756140041    6.33298124769882    5.34942301338904
H        10.78987443102891    9.29171262601554    4.23635136892649
H        12.50077277018543   10.74350300426095    5.21863077530802
H        14.86139638617941   10.02783725128332    5.27848690030505
H        15.50090341576818    7.82989510102947    4.34864573451057
H        13.77239842390208    6.35076251237754    3.39151395586318

