77
CSD_code = BIQQEX | q = 0 | S = 0 | Stoichiometry = C35H30N2O7PReS | MND = 8
Re       -0.33341004550801    5.90684437447228    2.33021925515394
C         1.12814503515696    9.71088392567967    6.65603679556691
C         0.30735314884786    8.11024148540584    4.90471538667615
H         1.08652040125935    8.47063546045816    4.24035107228621
H        -0.64135683714890    8.59181915898996    4.68904622398243
C         0.69807833570191    8.26923629053374    6.36498862987409
H        -0.16580723217435    8.03172556962222    7.00416817923586
C         2.84158038854404    7.06408328904230    5.93451369821597
C         1.56184989718683    6.40676733400260    7.75358572205361
C         2.58948111754148   11.04070240042227    7.90419910997597
H         3.25923319081916   10.89611866258796    8.74774561977953
H         1.75684213609290   11.69177582754338    8.17664538376745
H         3.12436913250835   11.48284131173513    7.06164355533221
C        -1.43552445567756    2.61649110703345    1.74523841890308
C        -1.22327429798987    1.24504678220951    1.82116291657635
H        -0.75528832260458    0.81336802104865    2.69485500041995
C        -1.59595030880761    0.42971625429876    0.76636890921347
H        -1.42280119077496   -0.63484721851817    0.82536919095189
C        -2.18795188706508    0.97388338947403   -0.36115503702231
H        -2.47551297223285    0.33281368897485   -1.18102887635336
C        -2.40837561343819    2.34040643929332   -0.43712004287726
H        -2.87036076454119    2.76567367974458   -1.31524622937371
C        -2.03330347381604    3.15898055177913    0.61156331570034
H        -2.18627640954140    4.23211821598592    0.56919559468861
C        -2.55417265983483    3.61397856619386    4.11881464195441
C        -2.87950508783688    2.37073675674856    4.65512202265439
H        -2.23289670109790    1.52163970420136    4.48271076090530
C        -4.02298618708054    2.22517878965674    5.41753674765801
H        -4.26955125297454    1.26132352404728    5.83821369435168
C        -4.84757256146952    3.31548426216462    5.64576777477752
H        -5.73736111577552    3.20020191729970    6.24672284114189
C        -4.52731475866995    4.55103541968146    5.10874995358069
H        -5.16621019170633    5.40160729307048    5.28995520996196
C        -3.38430775326759    4.70379831297653    4.34350650241813
H        -3.11343515584527    5.66771126701693    3.94167208298963
C         0.23404680425638    2.95840873973318    4.08463219955267
C         1.31556635047969    2.36370462513145    3.43913039260101
H         1.33503808746425    2.31842328005826    2.35761530773756
C         2.35809177912051    1.83580315059998    4.17761575272701
H         3.19787073958844    1.37854725940463    3.67378831778072
C         2.32994762422999    1.90500500208798    5.56083590141904
H         3.15027781871882    1.50241968503823    6.13671118450442
C         1.25661846937149    2.49847610521700    6.20450262119473
H         1.23976837182976    2.55968213512109    7.28202798772152
C         0.21124863547350    3.03184755205071    5.47419088788805
H        -0.60718366728164    3.53192035494870    5.96991546217729
C         2.71278281268865    5.48267122003499    7.63978866105687
C         3.47149209043960    5.86423670584022    6.53168076881989
C         4.59123961287595    5.15457202892607    6.15446752620778
H         5.16860364348667    5.44965988039200    5.29212768650489
C         4.94498390813271    4.04929774962309    6.92124368028131
H         5.81645928908391    3.47167360131491    6.64916108951006
C         4.20132352102264    3.67867459670712    8.03085296005697
H         4.50529829539155    2.81981205959424    8.61162177972926
C         3.06818443726061    4.39239327350805    8.40627864572324
H         2.48241683734732    4.11044376101592    9.26782062725408
C         1.90474448607883    6.69388549829502    2.05662575662043
H         2.47557327957769    7.18773438708946    2.82586235252457
C         1.09111155659476    7.32398056828087    1.08152903977193
H         0.97310223339255    8.38731383319939    0.94701782149136
C         0.65587858562362    6.32399470073040    0.16581330396954
H         0.12184235741970    6.49534981339242   -0.75540407872714
C         1.15622889123291    5.07648934205455    0.62571088610574
H         1.07238868697212    4.13743990629345    0.09933970928278
C         1.92311511410267    5.31684438430814    1.79533398955087
H         2.53837453616810    4.59610804765266    2.31063728285052
N        -1.88313494474984    6.68182541474115    2.15149727595045
N         1.72969096144073    7.32972180043175    6.73094267600433
O        -2.89345324747456    7.25616659666563    1.96102282828552
O         0.65759692870831    6.41807558080365    8.54789523315724
O         3.22398744705268    7.75961134610051    5.02641554790183
O         0.63147757131582   10.67817001291631    6.14728948940417
O         2.10886394962632    9.74873913569312    7.55316450339026
O         1.34900595148033    5.63049076625946    4.73607337936480
O        -0.95336486311914    5.88765015883787    5.52277855801988
P        -1.05405468484983    3.77042810928507    3.10446904396349
S         0.06300419567320    6.30018601564303    4.57594193560837

