32
CSD_code = BIQRAW | q = 0 | S = 0 | Stoichiometry = C14H10NO5PW | MND = 6
W         1.31186135557650    6.33668342981957    3.17103095305209
N         2.03243298568191    7.95499976453340    7.90899348882060
C         1.90592275810048    8.28043936852021    6.59599611127424
H         2.06491367695787    9.30208087188786    6.29496290124264
P         1.43764508163104    6.97981658534119    5.59612220869934
C         1.45254483683358    5.91101092440103    6.99695034733188
C         1.17717340998763    4.54440144274220    7.07455205707552
H         0.91640738385804    4.00570539109877    6.17304940222332
C         1.24436209035313    3.89926018019951    8.28957220218138
C         1.58251828854571    4.63385792855382    9.43824061414413
H         1.62965201814636    4.11718966008501   10.38575909551702
C         1.85385795082564    5.98034386971444    9.39246627650620
H         2.11000885779295    6.51807085889151   10.29270302868495
C         1.79212372179073    6.63451628439663    8.16145373874745
C         2.39020655400670    8.89925027932466    8.93206670698509
H         2.51308838709005    9.88567470671679    8.48973650345653
H         3.32852721644540    8.60781451718628    9.41026879382782
H         1.60928510057908    8.94937728110509    9.69454311284181
C         0.96502470570689    2.43231599853757    8.41013613763519
H         0.73055873177954    2.00151216769694    7.44055290634509
H         0.12412507726525    2.25985009287846    9.08091133349206
H         1.83044232100373    1.91425627420580    8.82156407487000
C         1.22563128881204    5.77698585814728    1.27856354797235
O         1.17556987430110    5.44615198553686    0.18512724321112
C         0.28554157026899    7.99501607127319    2.71215104889134
O        -0.29106623150519    8.92806049323644    2.39677275953929
C         3.02222207967318    7.30248211162525    2.78227129987696
O         3.99468625378105    7.83738554755853    2.51549127351880
C         2.34027947284178    4.66753868337758    3.57510256038511
O         2.92009542203620    3.69982877121950    3.75018731041906
C        -0.39840810701994    5.35190598094993    3.51351412025210
O        -1.36623413314429    4.76451661923751    3.65908684098165

