107
CSD_code = BIQTIG | q = 0 | S = 0 | Stoichiometry = C48H54N2O2Zr | MND = 12
C         8.68143748899437   -3.79641300061035   -2.13081332607478
C         8.41195431981569   -4.69774540921351    2.83475798824555
C         9.99765832335533   -3.18519326822196   -1.81552404616570
C        10.54133812242341   -3.33137120135026   -0.54064143091744
H         9.98944244652494   -3.87630004725294    0.22123527852740
C        11.79226036938702   -2.80951055162934   -0.26006840402018
H        12.21787964869290   -2.93977094886787    0.72337376535479
C        12.49899970379827   -2.12637455705288   -1.23612901174063
H        13.47134498494138   -1.71447524790239   -1.01017322780311
C        11.96060627240755   -1.97909024621474   -2.50506505268939
H        12.51400899974019   -1.45143920949658   -3.26763314751572
C        10.72025109286735   -2.51300588888012   -2.79826309246929
H        10.29523192192506   -2.42370393129972   -3.78569158878877
C         7.29475220236198   -4.66471772552229   -3.85331715853920
C         7.43330085148888   -6.00118068302530   -4.25808579463170
C         6.35708639722540   -6.64139253191235   -4.84825313172196
H         6.44237245992122   -7.67526628456878   -5.14444035584800
C         5.17017534639512   -5.96905412105415   -5.07208933022613
H         4.33939801910078   -6.47605660512801   -5.54044976581127
C         5.04788051913494   -4.64297032639132   -4.69914494054422
H         4.11720098781838   -4.13216578381311   -4.88960826342680
C         6.09378627361719   -3.97488459277739   -4.08219539347375
C         6.00419692650227   -2.52316567533274   -3.66493309888099
H         6.44013457477878   -2.45396581725947   -2.65460801559891
C         4.57823979034687   -1.97887606992573   -3.60637305205045
H         4.13632956072777   -1.94406040324503   -4.59945055466950
H         4.58781294153181   -0.96116352930177   -3.21883059303646
H         3.94910780235953   -2.58999718166574   -2.96215204945051
C         6.84649647682435   -1.66414872083537   -4.61452873914853
H         7.86760486901851   -2.03463847156220   -4.64583003788199
H         6.85714056339315   -0.62675768118056   -4.28463767918104
H         6.43304494492487   -1.70589548314461   -5.62021678240952
C         8.74126486355723   -6.70475894576426   -3.98274079581370
H         9.52716379915271   -5.94049995058163   -4.00281211733039
C         9.08721725354374   -7.77673879410906   -5.01386847826019
H         8.43180474218605   -8.63981953216866   -4.92262534130775
H        10.10992032528828   -8.11634805569290   -4.86216853280615
H         9.00209223215913   -7.37811004175821   -6.02199875206266
C         8.69696869996269   -7.30626218782140   -2.57473640802973
H         8.45247304110836   -6.53386218295583   -1.84751451992880
H         9.66136394511512   -7.74109632798197   -2.31755894616578
H         7.93403116314048   -8.08184527458648   -2.52329772106715
C         8.57978625853689   -6.15146694282969    2.58977149643749
C         8.69268706399545   -6.62942558891498    1.28614385073990
H         8.66153270248335   -5.92761208587555    0.45504808208896
C         8.84841004958123   -7.98548143455512    1.05917950955612
H         8.93557057697073   -8.35439946693106    0.04868864081367
C         8.89161544701415   -8.86971296870311    2.12490227048273
H         9.00999365936079   -9.92758946207936    1.94289317856375
C         8.78414867670634   -8.39705140138076    3.42373687650619
H         8.82010242743118   -9.08701840965435    4.25377113860126
C         8.63026929550360   -7.04437424833009    3.65751769957084
H         8.54461520447635   -6.65604651538803    4.65997550435767
C         8.33156638340426   -2.98269430882863    4.47120193543765
C         9.44554845954280   -2.12747790458879    4.40764017480506
C         9.34931362811964   -0.87060647062579    4.98401374905636
H        10.18971065010320   -0.19612900516578    4.95333589031186
C         8.18466041723747   -0.45412294499378    5.60294323693792
H         8.13072562628363    0.52991201149323    6.04479719593235
C         7.09202839744156   -1.29953727915405    5.65942585861539
H         6.19163713485958   -0.96462214299475    6.14988192681431
C         7.14665249045342   -2.56491273823784    5.09950339338022
C         5.98555517935293   -3.53042800235606    5.17349503820582
H         5.99801512328259   -4.13010224964803    4.25546488336984
C         4.62373937799025   -2.84624021144053    5.28079191278095
H         4.48461597536115   -2.40595691883253    6.26537840444737
H         3.83098858166523   -3.57675904631732    5.12848976693122
H         4.52246218755052   -2.06047786074659    4.53376558542103
C         6.19972294073778   -4.47990407586015    6.35621785313458
H         7.14936649258854   -4.99602131130929    6.24558149374048
H         5.40057213649726   -5.21702238167972    6.40399212932490
H         6.21555745846036   -3.92010611242562    7.28913965931721
C        10.71628208311320   -2.62238743363922    3.75141599715347
H        10.43400298660995   -3.13363380716640    2.82205120430644
C        11.69696355796457   -1.50804685328309    3.39245687530135
H        11.21821750837376   -0.74756627551326    2.77884243649308
H        12.53597782073322   -1.92166379463291    2.83585694300015
H        12.09828839722041   -1.03855307529207    4.28769395812776
C        11.39786528400760   -3.64066514750872    4.67228231883487
H        11.68324292427580   -3.16414843858810    5.60819841352397
H        12.29155246012687   -4.04486164167951    4.20040561877091
H        10.71904049737662   -4.46054776202456    4.89279368252828
C         7.40146587071108   -1.15819628593237    1.66189858848270
C         6.14995938326258   -1.04421502386831    1.02735587109176
C         6.36058454393112   -1.04953218001215   -0.36880208608707
C         7.75087762997503   -1.16462936852024   -0.60007342036982
C         8.39391522047651   -1.23003049669111    0.65937804513133
C         4.58026517126431   -3.54838510292524    0.17407932477005
C         5.11377134220623   -4.56998055006799   -0.63936480220567
C         4.88567169789063   -3.85451197712355    1.52193773572585
C         5.60027172490447   -5.07389117164449    1.53712635871345
C         5.74279872830708   -5.51239576726914    0.20181465866028
N         8.41816449163344   -4.01464861330332   -3.35740536964417
N         8.42104817230710   -4.29994613252136    4.04537983593257
O         7.90364395634442   -4.13470635479717   -1.12017651014206
O         8.29091826360103   -3.91002041200396    1.78565397807106
Zr        7.06979710131453   -3.34723730042750    0.42164281570840
H         8.24933606361640   -1.04300525784635   -1.55538757424588
H         5.21021732710161   -0.83337864464265    1.52252162491046
H         6.14818234811354   -6.46524066703989   -0.11459077414179
H         7.58342158632784   -1.06667422861175    2.72364895008789
H         9.46332168781114   -1.20278543254107    0.82735265686810
H         5.85229733718078   -5.65499809153856    2.41685818566812
H         4.49683432826089   -3.34030985495385    2.39203825247057
H         5.60976488556706   -0.82511277252564   -1.11487467371186
H         4.96508365348740   -4.68887977923126   -1.70526897145882
H         3.91460869415486   -2.76013433713317   -0.15712683867300

