124
CSD_code = BIQZUW | q = 0 | S = 0 | Stoichiometry = C40H70MoN2O7Si4 | MND = 8
Mo       17.15329278075596    1.83041456167592    3.21883443287443
O        18.32864676497043    1.64324282132621    2.06913638537863
O        15.80246485986384    2.33358564004583    2.41112667328932
C        16.71908619301643    2.45230011916918    5.53740463043092
C        16.62326902301855    3.60785005430772    4.74115606821661
C        17.88957341074535    3.79011006307569    4.08386890565280
C        18.80607225200637    2.82128028685645    4.62685270891131
C        18.07261660314571    1.96869519698200    5.47386539763844
C        15.67897614256215    1.95758760041494    6.50155472531754
H        15.70282346937672    2.56235011965283    7.41165229874962
H        15.87110192130547    0.92328744851253    6.77402764746438
H        14.68105247056962    2.02158370500102    6.07244972029331
C        15.43959387575536    4.51951420094440    4.59809948566406
H        15.75144344675012    5.56044403993150    4.68251429770279
H        14.70288484830497    4.31281745460641    5.37050862650975
H        14.96943849619798    4.37493684594276    3.62301102548229
C        18.29053263747501    5.01465814249877    3.30299377712742
H        17.44806540586666    5.38986996178644    2.72308808963017
H        19.10294046160113    4.77988272791956    2.61662365202509
H        18.62593562374230    5.80252621306941    3.98207536223622
C        20.28074934039424    2.82314099375483    4.34960694192636
H        20.78832806693647    2.05239122783988    4.92328622357608
H        20.70776057495807    3.79110045879036    4.61570302039176
H        20.46994603968861    2.64215283088844    3.29059876170894
C        18.59056825730735    0.84615609144114    6.32521405840254
H        18.10042693970995   -0.09496023478739    6.06803517810258
H        18.39915647697039    1.05572292633371    7.37868154052429
H        19.66076736434911    0.71180932920245    6.19240681208111
O        16.89660800026601    0.09064316074466    3.68603075203028
Si       16.80670065154362   -1.15118617307072    2.62956007799306
O        17.87171880465305   -0.87012245830878    1.42922375330565
H        18.19861494939407    0.05090403251292    1.39558893612599
N        17.14424096145751   -2.64777190446196    3.40154333904420
C        17.78328767127242   -2.66511365729411    4.66505642737285
C        19.16639038817131   -2.48466274513624    4.77008747789904
C        20.02029786436820   -2.25371944385133    3.54766381513685
H        19.39739928816239   -2.40528258018241    2.66738242260317
C        21.19043039199280   -3.23697768246734    3.47663169053475
H        21.89932839154291   -3.07361183026563    4.28510920349781
H        21.71910776910174   -3.11578263788198    2.53373260688706
H        20.82833337918262   -4.26048570328595    3.53986153644460
C        20.52050369862576   -0.80731395190053    3.52283126505607
H        19.67170851990923   -0.12075067791098    3.52268249252891
H        21.10603146858577   -0.62835222809621    2.62398107677977
H        21.14629098477861   -0.60004695083852    4.38987906851343
C        19.75482419434045   -2.49925543391830    6.02848477891908
H        20.82130680392097   -2.35521525530906    6.12001328764159
C        19.00003054635710   -2.69377091747155    7.16830378746431
H        19.47262929486423   -2.70155474139929    8.13980627138787
C        17.63484990295321   -2.87608348559076    7.05655927654225
H        17.04658193222783   -3.02271317179303    7.94975122003161
C        17.01297527735733   -2.87211776313089    5.81591877411714
C        15.51594424789143   -3.02657668870086    5.70906774543586
H        15.28736867836733   -3.27064059661629    4.67017928749921
C        14.85654806802212   -1.68434667372596    6.03340989878650
H        15.09648728762614   -1.38086908889083    7.05232705117071
H        13.77631056790166   -1.75618443843341    5.93712874990390
H        15.21695406455397   -0.93057488042903    5.33633900366369
C        14.96192218174917   -4.13722492406785    6.60156219528357
H        15.51736596504741   -5.06061006234073    6.45464236944459
H        13.91798548384324   -4.31968171219995    6.35609011868174
H        15.01600221799410   -3.86801047450700    7.65394981070776
Si       16.97701355512491   -4.11580059739158    2.45418563750755
C        18.08861723683918   -4.06724440584410    0.90338800159448
H        18.12366238008315   -3.05788852744056    0.50768186256321
H        17.70147019968507   -4.71814190642838    0.12574286589161
H        19.10804510346606   -4.37981766748832    1.11127162555650
C        15.17541432972452   -4.38209463629200    1.90564469868748
H        14.51118078637487   -4.61060511284840    2.73354952915982
H        15.10984135561641   -5.20611491977259    1.20184183864986
H        14.80276093949954   -3.49171799218986    1.41159466266893
C        17.53698819789494   -5.52904756891632    3.60680531349079
H        18.53311084765866   -5.35873263044338    4.00111842090103
H        17.54986771534620   -6.46870832064688    3.06597199527051
H        16.87131654754064   -5.64768449360817    4.45444113532768
O        15.29112067284135   -1.17233076922459    2.08801649464979
Si       14.83184683420470   -0.48058017606598    0.67708601416321
O        15.07567448056412   -1.54418729856591   -0.52436642055734
H        15.95676433443668   -1.59130500906919   -0.89042275869480
O        15.68606070511561    0.83234401405630    0.28883693678893
H        15.69865930691227    1.56032343046354    0.94096352996272
N        13.14593641017535   -0.22495681182807    0.91625975139479
C        12.40348525516139    0.13804454182726   -0.23725651076951
C        12.26937363504745    1.48428621241773   -0.59206289147402
C        12.89838525338543    2.58542979137820    0.22728312464669
H        13.42774842219201    2.12831805003668    1.06385134378072
C        11.83371674779916    3.52723157720158    0.79584994057226
H        11.29788050636973    4.03881653567223   -0.00070085485425
H        12.30112089998958    4.27938005674760    1.42898251676309
H        11.11399418225797    2.97045023168960    1.39009679559701
C        13.92032327567566    3.36398955120195   -0.60439162284367
H        14.64119940873635    2.67758470190822   -1.03903396310148
H        14.45484756282944    4.06888563463657    0.02959948132785
H        13.43524297495186    3.91734075740959   -1.40592846941936
C        11.53455925575149    1.81151306783648   -1.72385552799172
H        11.42502342421912    2.84785245294193   -2.00720899189908
C        10.93745436121820    0.83369708911572   -2.49424107397986
H        10.36497713749791    1.10473273055444   -3.36972614297723
C        11.07614499441626   -0.49280812761405   -2.13628130866012
H        10.60397065301957   -1.25476474876020   -2.73839035433569
C        11.80879016964770   -0.85931755124166   -1.01594697161923
C        11.93053550216937   -2.31566845528308   -0.64131705826532
H        12.61747672933598   -2.38190617554000    0.20277021462458
C        10.56898470465373   -2.87132627939576   -0.21666155718666
H        10.16336311825591   -2.28572954025843    0.60433328649204
H        10.66797617528291   -3.90597002375575    0.10592573769161
H         9.86334271916760   -2.83724021755198   -1.04401068853632
C        12.52350053386708   -3.13769173618062   -1.78563612334909
H        11.87678726083019   -3.12874063631089   -2.65983318976507
H        12.65822160279842   -4.16994886561155   -1.46957024845456
H        13.49163086452842   -2.72838554820384   -2.05772146627473
Si       12.39847516800680   -0.32104964051040    2.49662019164914
C        12.45397215030828   -2.09479795313794    3.19832667548280
H        11.98095037847789   -2.81163276138930    2.53437310949050
H        11.94857292481041   -2.15575300542211    4.15832476654211
H        13.48541047594749   -2.39601781131075    3.33515514530995
C        10.56706305868664    0.19958373332949    2.30393184192242
H        10.31645569175688    0.42203363967482    1.27260362416763
H        10.33786439468286    1.07706076511530    2.89948004079687
H         9.90594169437958   -0.59200969438903    2.63988682445864
C        13.25295990384895    0.86679207059420    3.72536435445450
H        14.33252011957964    0.72496342653941    3.67272943785006
H        12.93239609071821    0.67570494997791    4.74536967917646
H        13.04591503172547    1.90917151517370    3.49964973183274

