43
CSD_code = BIRBEJ | q = 0 | S = 0 | Stoichiometry = C19H17MoO4PS | MND = 6
Mo       -3.60488587120941    0.55246448025290    3.41587454527211
S        -5.85911046195427    0.12317747496912    4.50945805475339
P        -2.86541154198162    0.60464147111002    5.66788638653923
O        -4.83213936578505    0.40392461399797    0.58652263492294
O        -0.81321950807287    0.97131812775109    2.18346786150915
O        -4.10097411374572    3.60769337603244    3.39021775824556
O        -3.07256768611086   -2.49745663744804    3.39045807551247
C        -4.37944342776174    0.45400954593559    1.63146308926884
C        -1.85108718118191    0.82840043062050    2.64241640156212
C        -3.92141529329266    2.47988318733466    3.42278155719137
C        -3.29596426987660   -1.38085891856384    3.40240641848412
C        -4.34301469549915    0.83256142259356    6.75737002474318
C        -5.46463727055945   -0.07263530805311    6.28332415001688
C        -6.78269336653457    1.68261370569162    4.55601004438449
C        -2.04473978601454   -0.88690180398609    6.29933732535241
C        -2.47675360685716   -1.70271766095117    7.33698172378625
C        -1.75105195866146   -2.83429731834316    7.67155014602782
C        -0.59554462916343   -3.15508385042620    6.98151958261202
C        -0.15790953573648   -2.34231831283829    5.94668532106051
C        -0.88188349608370   -1.21807158301998    5.60534443933730
C        -1.75213476277943    1.86988666299923    6.34356622496824
C        -1.26170711486041    2.86259710727339    5.50543137021945
C        -0.40935386514309    3.83244840544429    6.00473351562517
C        -0.04031230998947    3.80943144860249    7.33889972311240
C        -0.51504619060468    2.81025799221683    8.17523004477385
C        -1.36518137821571    1.83988246832403    7.68138691347932
H        -3.37691501026644   -1.47313665609244    7.89042376943446
H        -2.09446502841853   -3.46929622756316    8.47553259985986
H        -0.03789569142906   -4.04097852916619    7.24639994446964
H         0.74157978279239   -2.59208449947937    5.40414644697421
H        -0.56208162083339   -0.57858286145601    4.78889548356509
H        -1.54638579821051    2.86341949618983    4.46031310326138
H        -0.03074591066897    4.60380640547790    5.35076374802098
H         0.62507118797335    4.56553366145631    7.72854478786188
H        -0.21632877028734    2.78700426872207    9.21317141860993
H        -1.72080116998292    1.04839539774388    8.32789172101607
H        -4.10424680224981    0.64039034165197    7.80857227040574
H        -4.63197759597495    1.88794256843149    6.66877090066168
H        -6.39333627836249    0.09652472648492    6.83276201026245
H        -5.17990163251938   -1.12453109632649    6.37233063019122
H        -7.03007241688223    1.92411080882835    3.52566257965141
H        -7.69456942639396    1.53105591364413    5.12969950726713
H        -6.18214513062240    2.47827575392534    4.98799574573138

