93
CSD_code = BIRJUH | q = -1 | S = 0 | Stoichiometry = C44H38N6O4Y(1-) | MND = 8
Y         2.41248036571829   -0.87866804401493    2.49774585444909
O         0.58199679251117   -2.03799877423093    2.44867479638028
O         1.50426797928439    0.02971174082798    4.28806465860168
O         2.88143658715438   -1.73755973602396    0.53106925003500
O         1.48247584468567    0.69954258146179    1.33618026302077
N         2.92682424411963   -3.31641294896263    2.85745971030191
N         3.70046819830328   -1.51702312392548    4.63394740942173
N         5.03711949951459   -3.31179509709697    3.88313605456258
N         4.95494843237647   -0.78855572690797    2.00229569162881
N         3.60613953999731    1.30688669947901    2.88894651978313
N         5.73482671029625    0.69905690695308    3.66240798929609
C         4.10097061962103   -3.89455068017557    3.02321053799900
C         4.40471175185249   -5.12340531416488    2.37919801816427
C         3.43774457542468   -5.76314255204110    1.66107087918343
C         2.14512550758372   -5.21330213193047    1.54945088981881
C         1.08143197505884   -5.83196944802516    0.87626851767816
C        -0.12946423506262   -5.18156850061655    0.79081319334154
C        -0.31907259862071   -3.91610476536471    1.32586943311679
C         0.71128624151168   -3.22386970489934    1.98427217379096
C         1.96261583317936   -3.93918445797948    2.14389430509353
C         4.72915798490619   -2.32499510491496    4.81895855427998
C         5.54129011048799   -2.21480821586289    5.98036049242616
C         5.26542740689264   -1.26462067256704    6.91730030223418
C         4.16294333775843   -0.40062495200519    6.75057494705519
C         3.81462345939259    0.60310928925783    7.66551538045365
C         2.70380296651350    1.38133780429870    7.42229782977812
C         1.91833556587652    1.19459072844913    6.29746939058994
C         2.21472278303637    0.21443313847104    5.33289417286359
C         3.39191373621098   -0.59669558287170    5.57496565273632
C         6.41701568614317   -3.75182126075011    3.78315301633991
C         6.75562497720580   -5.01851048666080    4.59014029396424
C         7.98443753503128   -5.73754482437896    4.03354169846821
C         9.25017438451493   -4.89269980466320    4.12539199554892
C         5.96260998682776   -0.25758177320832    2.67227394664731
C         7.30270200415999   -0.64804289957913    2.39738199302644
C         7.55721653149511   -1.59500894947715    1.45120733442757
C         6.49807206810476   -2.17878038789562    0.72584788326193
C         6.67664392329478   -3.17417779702816   -0.24529798041874
C         5.57779975133307   -3.66773925148286   -0.91432197182957
C         4.30205196551494   -3.19259452777637   -0.66248121095297
C         4.05014596758502   -2.19532938731639    0.29750614425200
C         5.19735399119886   -1.69921597203438    1.03284561772064
C         4.62486586104450    1.54946576752285    3.69188286161039
C         4.62280079034149    2.68894252548659    4.54054254272258
C         3.61962373093557    3.60658860669877    4.43219823150174
C         2.58367170979468    3.43040482931924    3.49357879345429
C         1.55251825693999    4.35501727861276    3.27195116932748
C         0.55774430530956    4.04886261236302    2.37016087671397
C         0.52678038405329    2.83511399813841    1.69921754574333
C         1.50742918704250    1.84923293105662    1.89921848819899
C         2.60279749315953    2.20588338553294    2.77996000173983
C         6.73321502576899    0.84849348673088    4.70489902256524
C         7.76118609577505    1.96244176891148    4.45150327580228
C         8.65758785624634    2.16846182884384    5.66982193035077
C         9.68702008409343    3.26733828942965    5.43403292716573
H         5.38301480353794   -5.56742941657551    2.43615359439590
H         3.65834503287678   -6.70249492149718    1.16986308993779
H         1.22986649422789   -6.80532468755385    0.42934189521270
H        -0.95360873116394   -5.66078057337035    0.27609145255399
H        -1.26871941994213   -3.41377410424447    1.21464406194455
H         6.36391690648649   -2.88949089622168    6.14618190396182
H         5.88137396832488   -1.17380050501404    7.80396536776157
H         4.41778666740614    0.74550220560068    8.55203529504104
H         2.43494451242915    2.15796240510602    8.12757486062542
H         1.05173714155936    1.81522905493008    6.12462698234836
H         6.63135847062408   -3.93099619919278    2.72596153898444
H         7.05783549790805   -2.92477841430407    4.09669017319531
H         6.93868359601555   -4.76990523610793    5.63732023826829
H         5.89924042047734   -5.69366320459275    4.56946125882321
H         8.13208254938476   -6.66565713915454    4.59189882469216
H         7.80738848875833   -6.00492968783419    2.98923403063065
H        10.11210496972267   -5.46275290703170    3.78485521916575
H         9.16395421516108   -4.00285814711975    3.50768692173916
H         9.42864279904322   -4.58408460777260    5.15362075793104
H         8.13286250517205   -0.19376217351771    2.91122344730865
H         8.57568832344591   -1.89900859720151    1.24027969970900
H         7.67394281427741   -3.53483439667091   -0.45811615408484
H         5.71282831039882   -4.44212992247048   -1.65921591373336
H         3.45360318808602   -3.58818201044045   -1.20077017741063
H         5.38188837953864    2.84657233938493    5.28678540378386
H         3.61131989295604    4.47892712755991    5.07337724847750
H         1.54986949163428    5.28886968065246    3.81700103588729
H        -0.23583150720770    4.76480374256606    2.19278921872784
H        -0.28645808136339    2.60464181648495    1.02683851703558
H         6.21426648347614    1.03998031278895    5.64816355933382
H         7.24899853359112   -0.10741610123402    4.82955225957083
H         8.37847245272070    1.71844438585678    3.58530921442791
H         7.24187391101327    2.89166465552863    4.21599159685215
H         8.03990105913780    2.42916796625267    6.53212072164630
H         9.17089494693342    1.23267524111786    5.90437203659360
H         9.19111675360728    4.21049126668150    5.21684403025642
H        10.31382820693563    3.40182779356943    6.31278097146639
H        10.32644518432524    3.01618051406133    4.59049652154851

