40
CSD_code = BIRMOE | q = 0 | S = 0 | Stoichiometry = C19H17NOPtS | MND = 4
Pt       -6.83669931710857   14.84539036755329    9.75653684013399
S        -8.04241023618031   16.70031313988975    9.43526451722006
O        -7.42134123037932   18.01328706073211    9.39733748304866
C        -8.97626274567212   16.58340980794145    7.86879372503554
H        -9.60645432352511   17.46050516614261    7.77264348045459
H        -9.55566689700267   15.66963866030707    7.84698766622210
H        -8.23943409008279   16.57423141432326    7.07101066553652
C        -9.42617750240928   16.87788258007745   10.61772853010907
H       -10.12639791386608   17.61289278799757   10.23732131458984
H        -8.98944964752010   17.23528409044070   11.54483381227423
H        -9.90159314677691   15.91879656077763   10.77833708707017
C        -4.97903855823229   15.71561024780773    9.95867689454030
C        -4.56318351370816   17.04182617729090    9.95053195657094
H        -5.29047218103590   17.82676270586688    9.80522101985707
C        -3.23149509200135   17.39172794628253   10.12157033585472
H        -2.94410543508049   18.43418600092470   10.10958872397418
C        -2.26608160632993   16.41564530032685   10.30740359219307
H        -1.22943108320324   16.69159876954099   10.44002125967489
C        -2.63513077659040   15.08516024591778   10.32249827614287
H        -1.88068309636424   14.32520269946188   10.46871120985052
C        -3.97337655587055   14.73448725181625   10.15157282201618
C        -4.44335092956699   13.35273740741746   10.15750491109983
N        -5.77385951407573   13.22785190789232    9.99303234276809
C        -6.39131376105550   12.03502033368068    9.96907698566956
C        -5.63911598214338   10.87011528146824   10.11886219273000
H        -6.11531149342465    9.90427721281488   10.10109071507524
C        -4.26902992990361   10.96684644854363   10.28975276281927
H        -3.67560822419296   10.07187043021616   10.40588850704732
C        -3.66038119109172   12.20883945935176   10.31108645412478
H        -2.59461477506354   12.29246304679706   10.44286512326663
C        -7.84062856490124   12.11205086371323    9.78231910851346
C        -8.38268943432341   13.41996516984924    9.64563721335051
C        -9.76666054842229   13.46757631386829    9.47769790651371
H       -10.27415161054056   14.41831342239639    9.36843189937772
C       -10.56678663405907   12.33501571874881    9.44199845826792
H       -11.63584766985470   12.43596652964315    9.30979323376923
C       -10.00357524815849   11.07889247507785    9.57444376707087
H       -10.62311854132311   10.19420006019569    9.54585903629508
C        -8.63800473358954   10.96997731053709    9.74526807134825
H        -8.19816626527498    9.98898162627967    9.85060009855304

