38
CSD_code = BIRMUK | q = 0 | S = 0 | Stoichiometry = C11H22B3IrO | MND = 9
Ir       -0.02399412874336    3.85846465782839    0.29179592999362
B        -1.28635561634132    2.00424126461867    0.35113175043019
H        -0.58623793150654    1.08263522742108    0.13442570608530
H        -2.28463760179469    2.02646746597999   -0.27598824120176
H        -1.74071794501276    1.86986546196643    1.61532965147880
B        -1.03354538057181    2.85337419399922    1.97605138777964
H        -1.88979096289873    3.58660278106604    2.54764113477975
H        -0.25250385131870    2.48606660185387    2.77744466927004
B        -1.51606770307400    4.63140872382579    1.77862211087052
H        -0.96403257401748    5.39821914507116    2.48113710540053
H        -2.54609766906036    5.00791108798495    1.34558538989945
C         1.83436691239618    5.22324110169993    0.51033774837811
C         1.81704143178709    4.59981112857548   -0.78016977206486
C         2.00854376926218    3.19175262400260   -0.59364948543553
C         2.05216810438255    2.94579268326296    0.79844711924034
C         1.94446833368264    4.19906625760960    1.47954581217941
C         1.89398282619833    6.69378996063658    0.77851503163413
H         1.41464141897900    7.25873481841272   -0.01775835151288
H         2.93388924117547    7.02171377772089    0.84894810416119
H         1.39958002329907    6.94127876723212    1.71571799252497
C         1.92838420477739    5.32101729269201   -2.09031644862891
H         2.97795078367463    5.52811938077576   -2.31067902355369
H         1.39493295267367    6.26891133552062   -2.06577397564753
H         1.52358760477022    4.72435318937986   -2.90507094202431
C         2.27611237974699    2.18829023931548   -1.67042572925713
H         3.35149506044919    2.09424950885578   -1.83946902440701
H         1.81117442438352    2.48434663967645   -2.60812759183546
H         1.89217714464712    1.20793334686345   -1.39559999522184
C         2.41601560656893    1.63427225113456    1.42139136419182
H         3.49682035089536    1.48345234208600    1.36893194303183
H         1.93752348168621    0.80577841827922    0.90121093215500
H         2.12269655691192    1.59327154969836    2.46823609878847
C         2.17584848893655    4.42952665146687    2.94034239355509
H         1.56297412880875    5.25015041214918    3.31041274813516
H         3.22291560779950    4.68740882828063    3.11632385827104
H         1.94639711382239    3.54254127815093    3.52720680907873
C        -1.31991766848788    4.39067785389827   -0.89592612305244
O        -2.10928891888903    4.73976175100006   -1.66527808748043

