58
CSD_code = BIRQEA | q = 0 | S = 0 | Stoichiometry = C16H36CoN3P2 | MND = 4
Co        4.83585595250038    2.36634260177092    4.39399094513406
P         5.70094897374663    1.42628674794889    2.63602123331729
P         4.03220137710637    3.65719533135304    5.94725195770792
N         4.05716511845861    3.53548187741581    3.21303901276401
C         2.91712224425762    4.77881008728820    5.01918895996023
H         1.91816540424727    4.33878401234194    5.04734080038271
H         2.87669102270023    5.78399215081405    5.44546962487671
C         4.30360713681195    3.56614215396909    1.78509577292428
H         5.03523331744127    4.35947805217465    1.53372573714622
H         3.37143716431197    3.84204819159698    1.25584245731488
C         4.79447626159086    2.22053275670774    1.25422447670354
H         5.40449621143444    2.33162798955551    0.35459115939241
H         3.93375650100143    1.58837288191148    1.02622522005853
C         3.42228986015518    4.78637291575933    3.57751422966472
H         2.56861267302415    4.97794125116967    2.89972918085000
H         4.11884692021461    5.63503259615053    3.42695743399777
C         4.00353594251693   -0.74033932819687    2.66707468858459
H         3.87564581819802   -1.81457183138160    2.78843588323170
H         3.34628905847635   -0.40912175695415    1.86540357993183
H         3.69352193786976   -0.24613443964893    3.59052980725747
C         5.46065663311759   -0.40095892615188    2.36050620147455
H         6.08390398312110   -0.88703383851664    3.12145401463175
C         5.14936185528084    4.81494341900286    6.88586396670389
H         4.53563905449510    5.57501538399438    7.38509324408956
C         2.95172411112191    2.92235908056281    7.27548430306571
H         3.63302303796148    2.33313715104114    7.90186762268345
C         7.49345329927685    1.69781870035998    2.20924232521060
H         7.66216627560468    1.39445877704328    1.16855816944708
C         5.86953789072135   -0.89331011439954    0.97663605447420
H         5.63972624713529   -1.95389095539990    0.88136554775294
H         6.93577082291769   -0.76489298988677    0.80665868497415
H         5.32670219728268   -0.35932867996887    0.19908912466542
C         5.96715450864324    4.03956415604908    7.91397406398281
H         6.72910082014702    4.68218079641378    8.35331565031482
H         6.46397563967868    3.19622061662201    7.43588772203327
H         5.34137927782728    3.65884141072012    8.71766608944094
C         7.78612603921045    3.18733169088228    2.35840075657625
H         8.84756004877973    3.38959944935656    2.22082749374003
H         7.49470669852686    3.51720312018731    3.35694211983103
H         7.22821990799071    3.77151980364523    1.63019108365687
C         8.38250990395518    0.88508808950880    3.14530520082425
H         9.42874422346364    1.15060679118630    2.99893905832226
H         8.27665181270810   -0.18284773633725    2.96955150236774
H         8.11808518152519    1.09066475751722    4.18192506968141
C         1.97555210679007    1.95370353601950    6.61140032737995
H         1.51133830543548    1.30583376870293    7.35288771862046
H         2.50565782330050    1.33094585899508    5.88725283313803
H         1.18634285597409    2.48930647982555    6.08735202693121
N         5.84220688971270    0.50187636145669    6.15679438912600
C         2.22332733021512    3.94657270456086    8.13859601588699
H         1.57625911937435    3.43403993676238    8.84945938764582
H         1.60272489357027    4.59836600559080    7.52675836368136
H         2.92091272701728    4.56094524696476    8.70267570395620
C         6.07021081919681    5.48916420468788    5.87393376774151
H         6.80258320527553    6.12040068501953    6.37560786895884
H         5.50439144049868    6.10501984896899    5.17848208301945
H         6.60088757793580    4.72642762394355    5.30175443773819
N         5.42302653913931    1.26333354332886    5.43404784503824

