131
CSD_code = BIRROL | q = 1 | S = 0 | Stoichiometry = C63H61O2P4Ru(1+) | MND = 6
Ru        7.19109022325948    4.14323775672320    4.81297692563537
P         6.41673382632609    4.07982411866624    2.59095882786879
P         8.74875371768579    5.67135259668015    3.93563188994392
O         8.18476353312142    2.28897454858582    4.38973502106083
C         4.69331430386171    3.78680202968936    2.05516266096135
C         3.90531577810926    4.85295397812407    1.62330151059520
H         4.32150033929752    5.84535275359870    1.55936787546124
C         2.58945730764620    4.65989563823402    1.24845810075476
H         1.99825488810312    5.49928564160520    0.91524593545220
C         2.03840295902522    3.39106467345964    1.29332530133832
H         1.01158976844589    3.23230704163893    1.00231783625233
C         2.81635369683470    2.32559960761554    1.70359836493576
H         2.39655836646219    1.33014163594347    1.72582045221965
C         4.13957473538619    2.50003381297652    2.09200471687814
C         4.91622900496426    1.30175016370656    2.53705690049210
H         4.79251992021869    0.48100571498321    1.83195870670277
H         4.56020527951024    0.96134338523293    3.51027897825055
H         5.98070876144768    1.52169736770848    2.61769089238681
C         7.36768345780504    3.14115850232368    1.33695884406373
C         6.79270699101877    2.83818215143382    0.10458415096192
H         5.76223605602733    3.09807915180713   -0.09226661624551
C         7.53798707434381    2.20013808971570   -0.86931702639717
H         7.08339101399397    1.96446308263404   -1.81981773290715
C         8.86160909072685    1.86575363105269   -0.63076920815478
H         9.43787131103640    1.36414255392323   -1.39312196060305
C         9.44165492338010    2.17716311835210    0.58700042104371
H        10.47450013346903    1.92600056725927    0.77905055114619
C         8.69996663664411    2.81329958442113    1.56711406346890
H         9.15634707912171    3.03970442272348    2.52146922818000
C         6.79945081164713    5.76879924495123    1.94579131586173
H         6.55177792246524    5.82696665415509    0.88101464547743
H         6.20828570270872    6.50016092215014    2.50708095048137
C         8.28320755548484    6.02352206012843    2.16852963064303
H         8.54322084558351    7.04727765393493    1.89512461507883
H         8.87320410030166    5.33928734728174    1.54930160189567
C        10.47434804126256    5.07128254644226    3.78779617980163
C        10.76062145675702    3.90092373761017    4.48752924821166
H         9.96427353692093    3.40931737885805    5.02533187665922
C        12.02511131666416    3.34663070101309    4.49363680976100
H        12.21656606323098    2.44055720820079    5.04782251904054
C        13.03722423834129    3.96968102027779    3.78700493838705
H        14.03405701444555    3.55601084957157    3.77719446030011
C        12.76487370121330    5.13237855854653    3.08996865549654
H        13.55875502029917    5.61575170592186    2.53914818328677
C        11.49957568980671    5.70911917844125    3.07260629729422
C        11.31859807696294    6.96360214878340    2.27557203395599
H        10.59377450478114    7.63057825380564    2.73207788142918
H        10.98983047789188    6.72502180792616    1.26415684232150
H        12.26650345672415    7.49102796467982    2.19629233617332
C         9.08347569133519    7.33889755993300    4.60463512005888
C        10.03843860615571    7.43981091772536    5.61504579782243
H        10.53142931116981    6.54145267830420    5.96203311153387
C        10.37991005968023    8.67278282325139    6.13707323686028
H        11.12339940818186    8.74057566827279    6.91707162214895
C         9.78365473854845    9.82260125874219    5.64261680485819
H        10.06398267745128   10.78839058986276    6.03386549921717
C         8.83671849775939    9.72941223174415    4.63728312940638
H         8.38104576794898   10.62322845284846    4.23898996850729
C         8.47235225383768    8.49393902327409    4.12894229514704
H         7.72311741418732    8.43967996791657    3.35270296107252
C         7.19061861525609    1.64457444254007    4.81243641745489
C         7.19072809694301    0.16677499393939    4.81283478526523
C         6.24290459126143   -0.52483725080900    5.56078992701406
H         5.52037369132260    0.03183299741988    6.14035174520870
C         6.24819261771683   -1.90650039407314    5.56028501502263
H         5.51830909920058   -2.44862255232152    6.14223726399165
C         7.19063639985030   -2.59599178218592    4.81284771113062
H         7.19064498381004   -3.67549394595721    4.81289857744477
O         6.19720477463976    2.28909771301279    5.23661940526478
C         8.13855666574253   -0.52490673048105    4.06497327929104
H         8.86105659519587    0.03171192999083    3.48532423454939
C         8.13314172762773   -1.90656389487734    4.06543749854435
H         8.86300117280776   -2.44872615222292    3.48349800353313
P         7.96489905358317    4.07979631888565    7.03492139540227
P         5.63282866505376    5.67128165212546    5.68995753409325
C         9.68843325085092    3.78680637068485    7.57035766555287
C        10.47640171096935    4.85293861135256    8.00229587978696
H        10.06017791471756    5.84530789516183    8.06637416010617
C        11.79218546611702    4.65983297631679    8.37734337475576
H        12.38339836877276    5.49922950123945    8.71051942150704
C        12.34319779585607    3.39097945673107    8.33257134091342
H        13.37007549113876    3.23225198066669    8.62337380403388
C        11.56527947487255    2.32553817441302    7.92217856424836
H        11.98510567619312    1.33009918351913    7.89981718252492
C        10.24212842659110    2.50002108544216    7.53357894935681
C         9.46542047406149    1.30173908801644    7.08858998066116
H         9.58907592956063    0.48100630641124    7.79371290988669
H         9.82145526901228    0.96127811240473    6.11539093335900
H         8.40094187954029    1.52171917174472    7.00795003720155
C         7.01397603095772    3.14093335233240    8.28875636310453
C         7.58891530414877    2.83806721643041    9.52116356510852
H         8.61936247122143    3.09803384344105    9.71804687284002
C         6.84359341947896    2.20014535784843   10.49510355605430
H         7.29820346200295    1.96443494314066   11.44558289859517
C         5.51996731496081    1.86577875313766   10.25654183166560
H         4.94371726146509    1.36412187630495   11.01886491581687
C         4.93994238294871    2.17714669208992    9.03874416999817
H         3.90710246979829    1.92597883964044    8.84667374901776
C         5.68169144356905    2.81314168289626    8.05858058760457
H         5.22534273414898    3.03956183444008    7.10420694470000
C         7.58211256489763    5.76887848055185    7.67976176436187
H         7.82978587824320    5.82700661420499    8.74452906221346
H         8.17329532941867    6.50024949914647    7.11849688928725
C         6.09834030320977    6.02356244924235    7.45706112366952
H         5.83832119795911    7.04732516890491    7.73045014830943
H         5.50837305878204    5.33933137363619    8.07632850032439
C         3.90726010856612    5.07118804478267    5.83796558992665
C         3.62098210587755    3.90085550683415    5.13819665083085
H         4.41731538801509    3.40928012790715    4.60037110168833
C         2.35650330202986    3.34655637817763    5.13208421868881
H         2.16508858268944    2.44042263951189    4.57798297081268
C         1.34439358363949    3.96958565273986    5.83873269875078
H         0.34758608663203    3.55584567491682    5.84863393720616
C         1.61674013272294    5.13227634199662    6.53578385263456
H         0.82285817753151    5.61563112716138    7.08662288918460
C         2.88203533930799    5.70902413514024    6.55314968852507
C         3.06300182344532    6.96355215906291    7.35011775585949
H         3.78784925596784    7.63051371243163    6.89362478877393
H         3.39173376241191    6.72497726664128    8.36154417692813
H         2.11510287439747    7.49099616742722    7.42935571869240
C         5.29810150708910    7.33885273022982    5.02103497742162
C         4.34311872197597    7.43976411558497    4.01064894746884
H         3.85010155405543    6.54140667175946    3.66369870013925
C         4.00165806446418    8.67273090035260    3.48860760064865
H         3.25811639967539    8.74052178754978    2.70865885958204
C         4.59794364959243    9.82254984125786    3.98302754359575
H         4.31758815259250   10.78833881129783    3.59179937680723
C         5.54488939452859    9.72936635554000    4.98835107043184
H         6.00058767404404   10.62318390910778    5.38661349984561
C         5.90924600568238    8.49389519321212    5.49670576898185
H         6.65851771055643    8.43963607751707    6.27291149684911

