80
CSD_code = BISKEW | q = 0 | S = 0 | Stoichiometry = C37H38Cl2N2Ni | MND = 5
Ni       -2.58440149259046    3.81951013690665   14.15637660294658
Cl       -7.90921099262474    5.72090609459767   15.25643296180420
Cl       -8.06853225024949    3.56315461769276   12.41229150615034
N        -5.36524864049504    4.88164919008136   14.85458846774582
N        -5.45574356556249    3.61154456079693   13.12525336136531
C        -2.54143526833535    2.90040425605225   15.96323435250554
H        -2.94959257683408    1.89374798385291   15.95198941225373
H        -2.98128710790192    3.56615164721150   16.69982974556889
C        -1.22825951821452    3.08780973279398   15.57229855697877
H        -0.65438537812521    2.22887301415524   15.22789495526482
C        -0.43791359502209    4.24481539607355   16.00371585720985
C         0.92660603273279    4.11973957375779   16.26250790845875
H         1.40769124755393    3.16073400564847   16.12577875857335
C         1.66266771424220    5.20827592561875   16.69171419852252
H         2.71889244214882    5.09668348995201   16.89365441389219
C         1.05471443885660    6.44161787694578   16.86057236251359
H         1.63396113892358    7.29051258016574   17.19462656555122
C        -0.29601178149381    6.58404371439000   16.58211503673584
H        -0.77281623154382    7.54810586669711   16.69151709529829
C        -1.03339731164078    5.49875740231191   16.15643573487814
H        -2.08312072519171    5.61526265856694   15.90519917170280
C        -2.07113011184499    4.65819887589124   12.38376993988923
H        -2.16412474973060    5.74043636354410   12.36709578875516
H        -2.60117993394986    4.13940427849894   11.59062124379451
C        -0.92316688466294    4.09921637393663   12.91503107041306
H        -0.16361853416403    4.75634312707484   13.33558079045301
C        -0.46672167668666    2.75404687990032   12.55226989169173
C        -1.38569969764680    1.72882991449609   12.31808615206520
H        -2.44361608121988    1.93066754408747   12.45692864526979
C        -0.96035892520099    0.46824238652362   11.95385389915840
H        -1.68578983846309   -0.31409570065618   11.77930167662598
C         0.39389104088972    0.20251354603286   11.82016420721810
H         0.72923761181144   -0.78416670486179   11.53425339515573
C         1.31691984611078    1.20437950558663   12.07229551179208
H         2.37425485682086    0.99674411316633   11.98407935846813
C         0.89337451079504    2.46783518296235   12.44009210837487
H         1.61835284542247    3.24461666274681   12.64214472419839
C        -4.58887076031852    4.12064278482847   14.03948621648390
C        -4.92586509123173    5.61307532612210   15.99333833110497
C        -5.11978001009522    5.07381775417285   17.26373019818072
C        -5.79511413385489    3.74773171160532   17.43841698822271
H        -5.58934751782037    3.34186498279473   18.42532892149804
H        -5.45731935811303    3.03737135087115   16.68673887818027
H        -6.87456397144624    3.86119410420040   17.33515606229333
C        -4.67970504794090    5.80243195121664   18.35902625920545
H        -4.81015573104765    5.39030397175776   19.34925195120107
C        -4.07708587237722    7.04336727131043   18.21104436483028
C        -3.92636526771661    7.56636997809998   16.93410861410332
H        -3.47052028280564    8.53775219925883   16.80812184603496
C        -4.34247496580481    6.86647106269582   15.81274285019991
C        -4.16065579130614    7.41499791636506   14.43287288123968
H        -3.67765625803372    8.38752813044550   14.46326419965145
H        -5.12089467225605    7.51374668721326   13.92686384927655
H        -3.54191256922538    6.73064042154074   13.85193452861095
C        -3.57178041173976    7.79492928705701   19.40325333082503
H        -3.64782155035293    8.86851548822978   19.24743191879061
H        -2.52175474678145    7.55160644525918   19.56917854782475
H        -4.12640845393656    7.52597822180579   20.29881260276641
C        -6.67960361589578    4.84802864429487   14.45907702036143
C        -6.73696322391060    4.04341403588616   13.36399391027022
C        -5.12497523042794    2.75431185958927   12.03875476872227
C        -4.96882154935450    1.38900773278110   12.27488421479958
C        -5.12599943387842    0.84658538657977   13.66019884516908
H        -4.96213526881676   -0.22729798449938   13.67657757233330
H        -6.12330900026615    1.05699405523847   14.04636922313231
H        -4.40112079251276    1.32519308362854   14.31908700089337
C        -4.65048833750052    0.56820333183234   11.20470329243834
H        -4.52440939432495   -0.49131523767852   11.37441435637934
C        -4.48473613596513    1.07929205818134    9.92480461569651
C        -4.08769206605628    0.18083398349435    8.79492524223881
H        -4.42447550490301    0.57960205884209    7.84121471605863
H        -4.49938546361619   -0.81691828743839    8.92802677211979
H        -3.00094871345228    0.09583877845171    8.76183649624007
C        -4.66837261231086    2.43890973592310    9.71828272792948
H        -4.55187310963776    2.84526327846989    8.72394308822257
C        -4.99819953435100    3.29356697326219   10.75995744159173
C        -5.22456929384576    4.75489474159513   10.51828444809300
H        -4.78702615199267    5.05724383239801    9.57055945508310
H        -4.78908609549229    5.35346962609352   11.31557886546189
H        -6.29355787016926    4.96632919436207   10.48252714703855

