71
CSD_code = BISKIX | q = 0 | S = 0 | Stoichiometry = C36H30Cl2P2Pd | MND = 4
Pd       -0.00022906206036    0.00019225476857    0.00000451012222
Cl        1.12186616805602    1.12820240815662    1.65670745693574
P         1.33475493190775   -1.79561815768117    0.25867873930088
C         2.87546077872516   -1.73992534220937    1.21699210661528
C         4.13187966406521   -1.77460072822532    0.62465485359084
C         5.26590166760964   -1.68498147204279    1.41307860322841
C         5.15121789910354   -1.55045843835157    2.78631528381818
C         3.89819718303081   -1.50289265945188    3.37795234055307
C         2.76291168068778   -1.59445356087545    2.59755247000656
C         0.43950275665200   -3.14785529311999    1.07278925988082
C        -0.91298260295557   -2.95435812786380    1.33993040825577
C        -1.63957937032978   -3.93915121605374    1.98474745427442
C        -1.01698702345848   -5.11531248100168    2.36982963701194
C         0.33453906201276   -5.30277605812208    2.12379118189033
C         1.06737310496045   -4.32065815475765    1.48335991158347
C         1.86858527693665   -2.35700794859987   -1.38363125829869
C         2.01029888449617   -3.67959347077228   -1.77656095705048
C         2.41991394308496   -3.96746161181231   -3.06789843468226
C         2.68869114630663   -2.94452603639242   -3.96142136217890
C         2.53947387446015   -1.62124477699288   -3.57356059630566
C         2.12516737429178   -1.32829682217290   -2.28952798202048
H         4.22190813491346   -1.87316184613567   -0.44883107576985
H         6.24253075408659   -1.71577176925155    0.95185202897462
H         6.03923359703832   -1.47575621932117    3.39669679955635
H         3.80883064090413   -1.38689799837366    4.44798472134683
H         1.77934505979775   -1.54296601598162    3.04633035908282
H        -1.39233413394997   -2.02230339554758    1.02690321714753
H        -2.68984696233401   -3.79103305567702    2.18889353560501
H        -1.58342289784211   -5.88611162113354    2.87147459150389
H         0.81872479055163   -6.21614731218062    2.43777850629591
H         2.12813249897190   -4.45105072594702    1.31443873825794
H         1.78379268894429   -4.47905249480269   -1.08612267128159
H         2.52299040429933   -4.99676666994427   -3.37949979864179
H         3.00320981739121   -3.17780984589526   -4.96806520424217
H         2.73447746061790   -0.82513571002632   -4.27720646033151
H         1.97273705202273   -0.29203350947522   -1.97196964448740
Cl       -1.12130438823563   -1.12819235351140   -1.65666256584342
P        -1.33475166364841    1.79560747815892   -0.25872724750569
C        -2.87546880377617    1.73997421803873   -1.21701242109405
C        -4.13187545471508    1.77446091924312   -0.62464862453648
C        -5.26589505633378    1.68468681267603   -1.41305632491404
C        -5.15121283793795    1.55020821668690   -2.78629785346061
C        -3.89819768513191    1.50280650839260   -3.37795807970615
C        -2.76291405804970    1.59452311104408   -2.59757628749151
C        -0.43954416269891    3.14791990233088   -1.07279243282285
C         0.91294470354087    2.95445062022381   -1.33997967435112
C         1.63952354935410    3.93928203603549   -1.98476673778064
C         1.01691186241328    5.11545491443436   -2.36979071044549
C        -0.33461877061839    5.30288858841418   -2.12373657436234
C        -1.06743181115145    4.32074272496617   -1.48330955013035
C        -1.86856861223266    2.35702109167757    1.38359709312845
C        -2.01030717509349    3.67960649290002    1.77654419837880
C        -2.41993667740235    3.96746195076910    3.06788416285623
C        -2.68869003624556    2.94451754300268    3.96140119532182
C        -2.53940455907470    1.62124231636024    3.57354457003275
C        -2.12510093786405    1.32830891961931    2.28950668252028
H        -4.22189305065961    1.87294866718486    0.44884507111373
H        -6.24252330246794    1.71539939943719   -0.95181771921034
H        -6.03922861973086    1.47543937516315   -3.39666910072331
H        -3.80883080330867    1.38685455708115   -4.44799576741690
H        -1.77934586782655    1.54310433730146   -3.04636822509513
H         1.39231783281792    2.02238395776629   -1.02701992327683
H         2.68980047778779    3.79120252550108   -2.18888996498826
H         1.58334188950974    5.88629961300137   -2.87137351973225
H        -0.81881868651260    6.21626323849627   -2.43769730394079
H        -2.12820062938220    4.45109255103274   -1.31443590382451
H        -1.78387217438579    4.47908190271661    1.08609505855374
H        -2.52307237113948    4.99676429044269    3.37948600251809
H        -3.00319296835164    3.17778874693737    4.96805453173788
H        -2.73432590887404    0.82512426087197    4.27720989217750
H        -1.97257948537356    0.29205644924608    1.97197278441420

