91
CSD_code = BISLOH | q = 0 | S = 0 | Stoichiometry = C46H38BrCuOP2S2 | MND = 4
Cu        1.40696106157246   16.71008648049990    4.69477469073421
Br        8.12942986440029   16.93788717062770   10.13141166956590
O         2.80636686787249   16.31823432201617    6.03504145463036
C         2.68527406002856   16.47723692051831    7.28280888223387
C         1.49774470105412   16.56348023105277    8.02147285209266
H         1.60665383254864   16.55945203884985    9.09779020733719
C         0.18118302454177   16.64083158268188    7.59021510281485
S        -0.44883528929134   16.74407979751211    6.03303817313815
S        -0.95474143638248   16.69304249378378    8.94554704044559
C        -2.57211270206589   16.80529870448721    8.14410209049727
H        -2.60915641590906   17.70518765655230    7.53795119932961
H        -3.30578567554081   16.84321421881982    8.94261363655355
H        -2.72176478804660   15.92983379579264    7.51987854824825
P         1.52589102303779   15.40080681196302    2.88280220870863
P         2.34462528798710   18.80320436939156    4.34165311118142
C         3.96587953692497   16.56223502234678    8.03847348775399
C         5.09836739565342   15.96943267722184    7.48145079104479
H         4.99795565062346   15.42439904838064    6.55424623700320
C         6.33061152711869   16.06737291796471    8.09515737618913
H         7.20291919608077   15.60186938398886    7.66183249832269
C         6.43235753418863   16.77851300936452    9.27829760909056
C         5.32645926618050   17.38491999147951    9.84898900354472
H         5.42737757925248   17.94356571302889   10.76711352161979
C         4.09725126777741   17.27436503227305    9.22781634522226
H         3.24488075756361   17.77125473817197    9.66341144885757
C         2.79574474700839   19.49924758669546    5.96303871196682
C         1.72128943072884   19.74951136591488    6.81529504497420
H         0.71441005483721   19.56443205728099    6.46076798522015
C         1.94007378438262   20.21747693889825    8.09531211239148
H         1.10337346838459   20.40393952291316    8.75276809358496
C         3.23618043392960   20.43601020625979    8.53655657386899
H         3.41188448716913   20.80032892381156    9.53820932513069
C         4.30640209712736   20.18275882832393    7.69545528663230
H         5.31666917082592   20.34954353628785    8.04088133385045
C         4.09279092854216   19.71160323370752    6.41174086769668
H         4.93432619798167   19.51098612572594    5.76369081991884
C         1.51260304218185   20.24349525825583    3.59243833625369
C         2.00400853149257   21.53917263125259    3.72033976898428
H         2.91329153289080   21.71474530730537    4.27943329926351
C         1.32716696090908   22.59021718402489    3.13105941693699
H         1.70845138164462   23.59661740261135    3.22719565197452
C         0.16066887320252   22.35651681967828    2.41811528470998
H        -0.36287863168709   23.18243173464709    1.95921889902566
C        -0.33744166834849   21.06967111608893    2.30028583447257
H        -1.25052774185698   20.88852912487787    1.75236281825601
C         0.33461636329265   20.01425495932910    2.89077262313046
H        -0.04731833460105   19.00336646822401    2.81858429061866
C         3.93129182230398   18.71424382967690    3.46189512924246
C         4.22824057680884   19.44669153345409    2.31767382031817
H         3.52293589720969   20.17503465188958    1.94111859966893
C         5.43031240853996   19.24199416242134    1.66335602984078
H         5.65919254240532   19.81368415322965    0.77541435624587
C         6.33909209589670   18.31335827893671    2.14228792916839
H         7.27843121648054   18.16397798610846    1.63063686334023
C         6.03975268700030   17.57004657975029    3.27344688326281
H         6.74382881383398   16.83945593443052    3.64351387653110
C         4.83466309431232   17.75606996205956    3.92085652593829
H         4.56858247628455   17.16102844632647    4.78369561228347
C         3.26554356681665   15.00584916810020    2.53534366195718
C         3.94945111024462   14.39357958105781    3.58450748723082
H         3.41880158896811   14.19642583714980    4.50752143284413
C         5.28107068060628   14.05867675600166    3.44492069181773
H         5.80772906437710   13.57654407890969    4.25633193026002
C         5.94411567987491   14.34546409164496    2.26103125852930
H         6.98661412769543   14.08528769432328    2.14905576551410
C         5.27212239601049   14.96949757650214    1.22396950401604
H         5.79096956688819   15.19754955249219    0.30416698656583
C         3.93480512048878   15.30138651734976    1.35496092678685
H         3.41495358991269   15.78458755879860    0.53980402147310
C         0.92038283504932   16.11568844926153    1.32612773471689
C         1.40442856908743   17.38146414140195    0.99766138682357
H         2.14393921319333   17.84348279556526    1.64168350687416
C         0.94552119523671   18.03479896854563   -0.12867106618056
H         1.32721536530924   19.01454517809790   -0.37705239226146
C        -0.01359405916127   17.43484439307309   -0.93056592112596
H        -0.37745516464454   17.94451965111611   -1.81044277909277
C        -0.51185574927443   16.18600022157836   -0.59796633095776
H        -1.26556128464724   15.72354466645249   -1.21861050523370
C        -0.05346157073367   15.52563684892910    0.52885062260694
H        -0.45049059102937   14.55480750487352    0.78919798012265
C         0.77623143857709   13.74228780867418    2.90768685260670
C         1.22599612207884   12.70327402290212    2.09794862044485
H         2.05359492112409   12.86874538524911    1.42149623770069
C         0.60974738714020   11.46772369175792    2.16511505247221
H         0.95588685108138   10.65998911598817    1.53649372923077
C        -0.44956589587868   11.26241010927667    3.03615272267250
H        -0.92526167702921   10.29385405622450    3.08447023168000
C        -0.89525673909950   12.29351164565558    3.84676650164736
H        -1.71690217238390   12.13013949056763    4.52849936444119
C        -0.28230091428138   13.53214092797346    3.78573835495829
H        -0.61141644138210   14.34759653508605    4.41749923786496

