73
CSD_code = BISPAW | q = 0 | S = 0 | Stoichiometry = C30H40NiP2 | MND = 4
C         3.94071444592545    0.97992265768780    4.72392513085626
H         3.07196482487692    0.86392605425790    5.38054556584156
C         4.63866450657423   -0.16943697900553    4.29491082368688
C         5.90979327178864   -0.03848260321391    3.74471600940273
H         6.44960947232217   -0.92470299443362    3.44182942467375
C         6.47498178070538    1.21325544295107    3.57137138909915
H         7.45697326895381    1.30566708911652    3.13045099133356
C         5.78671650032976    2.34582903043269    3.96574998345943
H         6.23184744880103    3.32254447298402    3.82950206242022
C         4.52266673472759    2.25274821067751    4.55217709948681
C         4.07895396620248   -1.51941206189734    4.53118163136331
C         2.96686306023102   -1.99122222822606    3.82063275654732
C         2.47146034139838   -3.25798513539834    4.11397820905901
H         1.60272320615130   -3.63302962690823    3.59473578563188
C         3.07476370871408   -4.05445115043426    5.07009702466538
H         2.67691082592778   -5.03677734275220    5.28157101908413
C         4.19191362297902   -3.59684335240013    5.74862594221780
H         4.67130435813130   -4.22008273459373    6.48951499886939
C         4.68736640966976   -2.33498019818536    5.47914492330923
H         5.55099594319618   -1.96392417349021    6.01358462261210
C         3.92541545330367    3.48593751354268    5.11202007558849
C         2.67760445737376    3.99536959391357    4.72497307764040
C         2.24669194766511    5.19759490583605    5.28005036445875
H         1.29992762176052    5.62182719544587    4.98485212481319
C         3.01607163209414    5.88241851507486    6.20154587959444
H         2.65895342054602    6.81541364071632    6.61349946628083
C         4.24360777088849    5.37311476949211    6.58919685791673
H         4.84977426621657    5.89971629082445    7.31190225647531
C         4.69214151063992    4.18833219918908    6.03984780283800
H         5.65035550980716    3.78450626898723    6.33612337307649
C         0.45845448062094   -1.35366801886769    2.53024450266799
H         0.29833896612891   -2.42912237804918    2.41801922646455
C        -0.21201279768265   -0.61472258826351    1.37610519099464
H        -1.29643152969736   -0.64058144863929    1.47483100376097
H         0.05327484969841   -1.05786521236675    0.41845752276574
H         0.11453806163906    0.42710348636284    1.37581021707731
C        -0.08807256995580   -0.88157086311744    3.87406612761245
H         0.24717792726807    0.14609864227575    4.04718622376682
H         0.29046531176641   -1.50034061052532    4.68603921982301
H        -1.17669815098578   -0.90778905580243    3.89253796609669
C         2.91925457333823   -1.70732060338987    0.96946709189423
H         2.43283568798581   -1.16020467953446    0.15113986003964
C         4.41871463109401   -1.42962309731790    0.90341034457096
H         4.94347831019715   -2.02023078891519    1.65235262116885
H         4.61799736730849   -0.37471898426465    1.09964416541259
H         4.81962054614098   -1.68128295849379   -0.07757922488441
C         2.63691068443549   -3.19484203446768    0.81076188338450
H         3.05692765651908   -3.54717768237591   -0.13104945665218
H         1.56940140855319   -3.40130475272464    0.79840817288097
H         3.09633832638666   -3.76146828343497    1.61783264840925
C        -0.04265354231621    3.62896790824809    3.84700098161181
H        -0.10018991907963    4.71932255169250    3.77260785535997
C        -1.00653111390937    3.02307348783997    2.83192011813454
H        -0.93278699551776    1.93805861511879    2.84756795694116
H        -0.79117802672260    3.36982304658779    1.82347214526420
H        -2.03192467144240    3.30076196511420    3.07322015509073
C        -0.41981519229323    3.18237364798000    5.25734300846628
H        -1.44755568684592    3.46140403244894    5.48591964118553
H         0.23389961020090    3.63078310304808    6.00283804492282
H        -0.33349360310752    2.09965309155658    5.33919217350840
C         2.13387615322841    3.95141498845657    1.90088473569207
H         1.33879584242918    3.68053344087982    1.19464281235790
C         2.23905413771163    5.46750535411453    1.97970854347413
H         3.00278240280926    5.76567416684239    2.69547800981177
H         1.29325647400497    5.91577981406906    2.27567184670962
H         2.51091578079953    5.86858716323226    1.00361992738230
C         3.43912591443556    3.31859776867165    1.41131744435941
H         3.61769615753425    3.53170650840832    0.35797773549665
H         3.38918989431047    2.21078407125321    1.53057068355807
H         4.28407479349157    3.69225989891229    1.98758048842963
Ni        2.76824714422306    1.16622474333733    3.05556931604368
P         2.26542713780430   -0.89508201554217    2.52435645097515
P         1.69804227961020    3.05053128946807    3.48699794564539

