99
CSD_code = BISQOL | q = 0 | S = 0 | Stoichiometry = C40H55NNiP2 | MND = 4
C        -1.83795103144591    8.43925012095034    5.34703304039702
C        -2.07213082500136    9.84156702968337    5.39154500294153
C        -1.16290684950628   10.69393112083612    5.99642095166990
H        -1.38483129318668   11.75073361100322    6.04508060434620
C         0.01425680110840   10.20215105972446    6.53319291370953
H         0.71826727622007   10.86828691078805    7.00821812793470
C         0.28321850103191    8.85260396734835    6.44244395078218
H         1.21126986792657    8.46530790674024    6.84191646479762
C        -0.60310771977521    7.95259080820734    5.84466045840370
C        -3.34455899622945   10.41182232318931    4.88391578055784
C        -3.63414888198532   10.47998882024709    3.51086079645458
C        -4.85792943141387   11.00694541025874    3.11194341818473
H        -5.11104465712784   11.05197976592146    2.06378549693476
C        -5.76841308291811   11.48058042262715    4.03960578986225
H        -6.71196024510050   11.88905152786760    3.70732888350104
C        -5.46744005324520   11.43844346584825    5.39051070993989
H        -6.17235305754337   11.81482934174066    6.11748874798292
C        -4.26158568980311   10.90488474713517    5.80599621616563
H        -4.02085613206958   10.86049920454631    6.85968336388727
C        -0.17579132132470    6.53135461461085    5.91565338383266
C         0.17188220369072    5.75894301838402    4.79676646250254
C         0.64902810185553    4.46655659105630    4.99876544322962
H         0.93018272482620    3.85898238794194    4.15304752463514
C         0.79083414347511    3.93808540818622    6.26799670255881
H         1.16305565630090    2.93175091035933    6.39594117307616
C         0.47194262609603    4.70901885833540    7.37258151918131
H         0.59154758140011    4.31174690902018    8.37023762718903
C         0.00865065216225    5.99751218173593    7.19097025924689
H        -0.22168526784452    6.60777326687481    8.05450524349681
C        -3.37458641410000    9.22572223972185    0.90575217281121
H        -4.13004505002754    9.94397063480658    0.57712751188630
C        -2.41829325465093    8.92558017938197   -0.24407239306034
H        -1.55806009326804    8.37382952405448    0.13869252629985
H        -2.06024948367106    9.84045195588253   -0.71100912373525
H        -2.90821600234916    8.32245764738899   -1.00741176305826
C        -4.04719609793029    7.94555258041335    1.39601100809911
H        -4.47349538671559    7.37664521384593    0.57103445951178
H        -4.84092480780118    8.17236807659353    2.10721280985368
H        -3.29258364540378    7.32483136853891    1.90203197598739
C        -1.60619382358102   11.42373020526387    1.72714883416128
H        -0.88942377191025   11.10249425846073    0.96039046979989
C        -0.82462522110400   12.06382146465053    2.87061016587715
H        -0.20042491901789   12.87747583055066    2.50403842091943
H        -0.18495638267016   11.32661616925231    3.35522788271373
H        -1.50866857021385   12.46532566455360    3.61614006012045
C        -2.58083436322610   12.42209616829035    1.11623103675789
H        -3.30727355263547   12.75263688981367    1.85581490963600
H        -3.11160578416863   11.99800469261636    0.26729329056316
H        -2.03420824352195   13.29764258034510    0.76680655740231
C        -0.21172718581882    4.99173062711035    2.02802969221288
H         0.65765008265636    4.33523543042534    2.12987423677017
C        -0.31521164482760    5.44872418757209    0.57605591456752
H        -0.51430257242315    4.59933899612097   -0.07624377031211
H         0.60222090030675    5.92598705215675    0.23945491971766
H        -1.13293510659637    6.16006305612925    0.47387447173063
C        -1.48182446338127    4.24303771562827    2.41829019846428
H        -2.32993244879385    4.92561034494507    2.36955494149829
H        -1.41524351956000    3.85040953125150    3.43032679754422
H        -1.66679283135173    3.41422863309126    1.73579266339618
C         1.70199094246915    7.06601547220747    2.74216032050477
H         1.71237184942777    7.20836553619671    1.65448160456054
C         1.88013625733093    8.43537782752513    3.39335258455273
H         2.03530636315821    8.33198771922119    4.46483041270968
H         0.97269951093464    9.03357145923170    3.23584307905308
H         2.72952557849410    8.96889535199600    2.96927331756486
C         2.82452848862937    6.11445465080633    3.13220632724963
H         3.78558904397864    6.55322986323692    2.86541949083176
H         2.73777999526987    5.16056225964749    2.61700342528287
H         2.82045804138388    5.93148683784789    4.20496184020547
C        -3.63932182159836    6.71329535462397    5.80186626012115
C        -3.21027385382365    5.25486082105286    5.62357590108748
H        -2.15559238147861    5.14486588531157    5.86457665374404
H        -3.34920194410633    4.97336615802095    4.57871920855114
C        -3.47439174192741    7.13007627229442    7.26688895950338
H        -3.79625153791220    8.16823155955656    7.38948802445698
H        -2.42521707893683    7.06842972506422    7.55415886937419
C        -5.12625404665335    6.82116487103638    5.43489241156111
H        -5.46176216188160    7.85719854171638    5.55008760810558
H        -5.26182028804361    6.53456613928112    4.38871385063613
C        -4.04098697068998    4.34923184413645    6.53007068581115
H        -3.70978492277576    3.31251300671742    6.40127410886714
C        -4.30553613405380    6.21429079070367    8.16389631550906
H        -4.16901869070368    6.51548820906668    9.20920654146010
C        -5.96524089701448    5.91289540952401    6.33289729560627
H        -7.02122236834621    6.00791722227742    6.05419012613268
C        -3.84270041285421    4.76908448633634    7.98549967710436
H        -2.78728428594041    4.68107504951471    8.25343293718988
H        -4.41418453898802    4.11197831448275    8.64520084634937
C        -5.51760556121665    4.46339784726738    6.15803421267741
H        -6.11706877187919    3.80974554599145    6.79565818983405
H        -5.66541325799604    4.14962109601266    5.12224551862202
C        -5.78221279423100    6.33074110134523    7.79060082284877
H        -6.38306891639907    5.69003272755958    8.43987114031963
H        -6.12169984852042    7.36021244864502    7.92905458604188
N        -2.89838508636359    7.60346160719547    4.89147827427159
H        -3.58710565265294    8.22831150641115    4.47108459605625
Ni       -1.42124177396465    8.14188456932711    3.37416148574346
P        -2.35967953672180    9.82890816199382    2.35120088242671
P        -0.04183673615749    6.49521611953559    3.12596467192514

