80
CSD_code = BISQAY | q = 0 | S = 0 | Stoichiometry = C24H47Cl2N4P2Re | MND = 6
C         7.05425798521611    3.60900587729521    3.31975942149284
H         7.05037862136817    3.67999311870035    2.25003588657788
C         8.08524527655332    3.75277496343325    4.19738463468904
H         9.12115187396317    3.96460858269980    4.03508493757053
C         3.16187597154844    2.85462061604808    6.83209314570992
H         2.09934509334041    2.73342346403529    6.74465237465890
C         3.97028214347113    2.91148837122703    7.95579639357197
H         3.68982314030862    2.84556459636683    8.98890181421159
C         6.24392313680445    3.31762021683458    5.30681269752938
C         5.21723894195078    3.11537975293386    6.26375890361982
C         4.59466150997817    6.19138660840198    2.40545384383546
H         5.54285320552456    6.10659115493707    2.94624760193936
H         4.70444291594032    5.62234165824813    1.47723459706377
C         4.29114002479235    7.65424983802912    2.09864973286698
H         3.40946724129910    7.72414376589516    1.46007312864788
H         4.08090934876633    8.19704328043638    3.02281858753374
C         5.46959360007725    8.31015524321634    1.38737460612515
H         6.35795338914140    8.28783038594261    2.01542913407669
H         5.24357481466359    9.34710114937446    1.14926790369691
H         5.69322293356583    7.78551935193890    0.46119065503373
C         1.73225242676587    5.70985697140959    2.64740467508254
H         0.96184410798218    5.29471260205910    3.30495131553116
H         1.62605004114102    6.79919451091946    2.63936660701095
C         1.56644364849373    5.13621465225337    1.24300650803315
H         2.34474516875565    5.52781920989445    0.58448411432996
H         1.68346956972281    4.05145403936059    1.28407784768947
C         0.19498845103973    5.47214328875738    0.67255694214736
H        -0.58785935645875    5.05354477099831    1.30091664487008
H         0.08887295071265    5.06040639285829   -0.32804494801379
H         0.05332235903983    6.55046271282040    0.61780266782677
C         3.21443584711071    6.23685927941469    4.98813994167395
H         2.66526821540916    7.16592048398827    4.81059832464145
H         2.60882926833302    5.61300419495792    5.65393502105508
C         4.56266655208190    6.52004106586622    5.64530129282138
H         5.08377270121324    7.30749936975552    5.09629856555586
H         5.17934736792432    5.62016129912274    5.60521387910813
C         4.39392175293682    6.93952962052573    7.10031013107484
H         3.74606874703140    7.81071104264231    7.17652453922881
H         5.35740616525996    7.18594523664546    7.54038145084119
H         3.95489291859129    6.12862767948307    7.67677282483038
C         5.75070817949926   -0.07102337547736    4.20646390591581
H         6.04796313230421    0.48077807026684    5.10488803742517
H         5.68737900710799   -1.12984857777682    4.46937958265643
C         6.77503247618638    0.14530806700164    3.09442056703039
H         6.62548410049190    1.13370282622455    2.65300066456315
H         6.61970506483855   -0.59390925823505    2.30661949182620
C         8.20169682950266    0.02927930787160    3.61604915078142
H         8.39212213182224    0.78067299240228    4.37969339187300
H         8.91566786472695    0.17333326069088    2.80859781333322
H         8.36988063830821   -0.95296667306919    4.05343180072250
C         3.71081166401292   -0.38890518948762    2.21794323351975
H         4.40270367165751   -0.02405223460323    1.45324432915738
H         3.92060138093876   -1.44773329894424    2.40114069157095
C         2.27906113820603   -0.18234145625014    1.73071166159623
H         1.56928253577306   -0.49779317635541    2.49813330110536
H         2.11627008559060    0.88246690644994    1.55152497382704
C         2.02103060460329   -0.95474488733098    0.44383126210651
H         2.69611411580482   -0.61985770726529   -0.34067372080018
H         0.99926449610784   -0.79915087256028    0.10656523907840
H         2.17387898241048   -2.02202840196408    0.59709247500577
C         3.00914712869985   -0.18439956660096    5.05113221042178
H         3.41123125576160    0.17555216152043    6.00472841562183
H         2.01976828427374    0.26687440603818    4.92830413471240
C         2.88469052547345   -1.70470053090169    5.07694642037498
H         2.43991926557297   -2.05970125576191    4.14607892629607
H         3.86875016114413   -2.16734165387069    5.17857563102543
C         2.00714781350346   -2.14373460195736    6.24414390616607
H         2.43813099304996   -1.82015832592918    7.18913336122750
H         1.90940397718927   -3.22693122581586    6.26291167818634
H         1.01377601757103   -1.70975823038470    6.15583815591792
Cl        4.26038311709872    2.87026670133485    1.36540664317756
Cl        1.54871900953992    2.59155483225383    3.69400453701966
N         5.91410683178507    3.33510651926713    4.01244246253956
N         7.56291428863638    3.56635997861097    5.45154403339364
H         8.04467825870612    3.61394115384813    6.33311514611251
N         3.95691146089878    2.98549613990974    5.75306087787110
N         5.25590086977326    3.07633776406250    7.59460568654261
P         3.34852626836503    5.28830751060332    3.41359279426511
P         4.07921495201573    0.55509613168503    3.74913953108679
Re        3.81854134969566    2.94269535079090    3.62261924995910

