105
CSD_code = BITMAV | q = 0 | S = 0 | Stoichiometry = C52H48BNiP3 | MND = 5
Ni        9.95447641419998    3.13176482306340   10.41054334770973
P         9.93425965619097    2.99169107382162    8.07010002123538
P        10.22594820530615    5.38448823639219   10.57504046967762
P        12.13950758672635    2.87919359082937   10.48676087955672
C         8.42082159582658    2.91121508259793    7.03554110611790
C         8.93169984897637    6.43261292563729    9.80414919635356
C        12.99361691723688    1.28608299221372   10.80641179241020
C        10.28711405568868    6.25770877446739   12.18485408318500
C         7.94314705359535    5.88914730156480    8.99646833380453
H         7.91892794467554    4.81992597702284    8.83951816364627
C        13.22813308623516    5.62694203536011    7.40866345334499
C        12.91934608505714    3.57304872738614    9.00971503627507
H        13.97368100330659    3.76359443563236    9.23128071189603
H        12.88407054963722    2.78474636505459    8.25234774235648
C        11.39671522285229    6.93100280342262   12.67749124438905
H        12.30928446546175    6.97668147613192   12.10244924629774
C         9.12771684130898    6.21932980011177   12.95649294936842
H         8.25683599790270    5.70810398977242   12.56779771741245
C        10.82436780667507    4.48416708587182    7.50832841299131
H        11.06477890942852    4.33666033993879    6.45134342989275
H        10.09936503955052    5.30135396387849    7.56797879138939
C        13.76324400421781    6.89742088183001    7.60765511772931
H        13.45104641899567    7.48135209089782    8.46216793237260
C         9.07729001298971    6.83446878689766   14.19131808422033
H         8.17088237126729    6.79745098853324   14.77898689764871
C        12.84505960812456    3.73985851838095   11.94303853492215
C         8.59279145531647    2.14448763036917   11.69010136293707
C        11.71437828109409    5.89966595811893    9.65228912576145
H        11.51256588266284    6.92554903484505    9.32911705120190
H        12.53833274181334    5.92302240244945   10.37057579924920
C         7.98346872021288    3.93307292473121    6.20269871841390
H         8.55247581019162    4.84677355669772    6.11923614330330
C        10.19147614117275    7.50206582801510   14.67544113847864
H        10.15738611911809    7.98366798546612   15.64172493138717
C         8.96423873900579    7.81118086955293    9.99540127194029
H         9.72859597945861    8.24958352630860   10.62219560010022
C        11.20728342709610    0.50681098209293    7.95519700201032
H        11.05820806552508    0.49685522865560    9.02788856895756
C         8.03882050940359    3.09672259480150   10.75654150126846
H         7.51292400386297    3.94165556674278   11.19649320306574
H         7.49042971320712    2.66804387628982    9.91673508655851
C        13.77668670537574    0.63697527383546    9.85980274748071
H        13.91494110491818    1.06612391243315    8.87911537727193
C        12.84227856953932    0.71001322594938   12.06561073976818
H        12.24850236649124    1.21696591796630   12.81337333336732
C        10.78967492129536    1.60977533218877    7.22282502567094
C         7.00337543132820    6.70089656187449    8.38641565216537
H         6.24439566099831    6.26052289088716    7.75564950311065
C        15.13179975430611    6.73740919951310    5.64274419905414
H        15.85799980581975    7.16492469422303    4.96505374369773
C         6.07017850347984    2.62447613476377    5.57004637124249
H         5.15888886878858    2.51508719450177    5.00053289077198
C         8.70685607446795    2.39806887480972   13.07505554085107
H         8.30165216889390    3.31774417255521   13.47556094072310
C        10.98008329850558    1.61991106282066    5.84501453139374
H        10.63742495656284    2.46225441924089    5.26068179376223
C        14.69471739660928    7.44960174700673    6.74445051971029
H        15.08317085825939    8.44215079870470    6.93307018974499
C         9.12777264223097    0.92956104495886   11.19331560077058
H         8.94701358735882    0.65531086960153   10.15865067764023
C        13.69860424091430    4.93001560588124    6.29352512823721
H        13.32771809803736    3.93081147778562    6.10161534833579
C        11.34568579322496    7.55146626339898   13.91386387873832
H        12.21556331104893    8.07448510016772   14.28434888249011
C         6.81562485985827    3.78678818035654    5.47379288995312
H         6.48677107795665    4.58632512997757    4.82509219802207
C        14.62891263181735    5.46640432688823    5.42325216037175
H        14.96636839743944    4.89284523454925    4.56953175509516
C         6.49810627015596    1.59980758167303    6.39947477787610
H         5.92131987309285    0.68919919306860    6.47719746124639
C        14.22158656803986   -1.13904118663373   11.41458344885194
H        14.69636212258479   -2.08086650693559   11.64809670166201
C        13.85679950886784    4.85560808218191   14.28203530964809
H        14.25275551342088    5.29159040164320   15.18754401405232
C        12.04109351098639    3.87812743701958   13.06847484756538
H        11.00744945886685    3.55248347443053   13.02300317851200
C        14.16900774768082    4.15789573377621   12.00431409741010
H        14.81434045089901    4.04732946863923   11.14502889839659
C        13.44959883278025   -0.49355651514706   12.36698474576092
H        13.32364826106783   -0.92935513235580   13.34782056880873
C         7.66270393695910    1.74581373853808    7.12695735273041
H         8.00368827235421    0.94422721415449    7.77077488458019
C         8.02219689666531    8.62220404789859    9.39118856878966
H         8.05501918069123    9.69081437948980    9.54761557835665
C        12.02730245362286   -0.53715932160885    5.96220447472134
H        12.51169463137306   -1.36797034692695    5.47015621159232
C         9.28028305490466    1.47022670679574   13.91446086086748
H         9.34042738836767    1.67077628792841   14.97483271990824
C        14.38662407118209   -0.56731945353605   10.16484815108295
H        14.99553863156218   -1.06041568358583    9.42055269713451
C         9.78638901805708    0.27550492879028   13.40903970477101
H        10.23098926862812   -0.44599848449792   14.07827330343724
C        11.82590287171719   -0.56201588370875    7.33120894243460
H        12.15243629055114   -1.41097038993231    7.91504185470999
C         9.71072367222064    0.01038041154265   12.05461667164139
H        10.09976122293554   -0.91937541164223   11.66361715286579
C         7.03916186882140    8.07018844756746    8.58502887158083
H         6.30565173674557    8.70754234071250    8.11336334130535
C        14.66556167703142    4.72380508064314   13.16429351483069
H        15.69284409233812    5.05734846730870   13.19999761122102
C        11.60176159115731    0.55494630966331    5.22135033810085
H        11.75334164272998    0.57223378872470    4.15161590713159
C        12.54226349421943    4.42591484297851   14.23482381332745
H        11.90503446441509    4.52550129822989   15.10179631019993
B        12.15785707622317    4.91618897442428    8.39651229260941

