133
CSD_code = BITNUQ | q = 0 | S = 0 | Stoichiometry = C54H76HfN2 | MND = 4
Hf       13.26591570371624   17.32253759916476    9.91427786425421
N        10.57270534952621   16.77160651329192   11.83441464560443
N        16.19085581416758   16.94248814903621   11.39184664502902
C        11.77318799459078   16.41800728200251   11.29165232314213
C        14.97460831873244   17.57733853027982   11.30810416132758
C        12.44764205725790   19.31754561533206    9.23056138745240
H        11.58616331941800   19.47979610257418    9.89343514443166
H        13.22551166295724   20.05096204138394    9.46619462787332
C        14.18793352605629   16.32002568739991    8.12229804047086
H        14.68460999582870   17.15577711814782    7.61867435119031
H        14.95941784520892   15.64047518668557    8.50411923171117
C        10.04965717679752   15.80221108274160   12.82776451708143
C        10.77894649411209   14.50713027053805   12.43613186753324
H        10.15252564493609   13.90773301032973   11.77318596038169
H        11.01443535222477   13.89868600777659   13.30716002613603
C        12.05014664104019   14.97533163878888   11.69978711452472
C        12.31670723744953   14.15909854756917   10.43074376075402
H        11.46216458005962   14.15747162682343    9.75940603379647
H        12.54745446449502   13.12519090797676   10.68555363902549
H        13.16497893059978   14.60086548646188    9.90691314735655
C        13.28996304094701   14.84670423258582   12.59058340034187
H        14.11144277472696   15.38261598357792   12.11696024843989
H        13.56097004509553   13.79872481069968   12.71105081322799
H        13.11087895297703   15.26310774718794   13.57782947642930
C        10.44926660937276   16.21750719355396   14.25250998962706
H        11.49802906891953   16.49527564042412   14.29869376844327
H        10.28101367031520   15.38536981820625   14.93301276273061
H         9.85223309927262   17.05465850621134   14.59720552745659
C         8.53061987358700   15.65990714715324   12.78319140586531
H         8.04756322203140   16.61559103811090   12.97559326564898
H         8.21794963108621   14.95464172029539   13.55034647869543
H         8.18701779502095   15.29234257256759   11.82141505172602
C         9.69155340586702   17.72399962586098   11.24028894133124
C         9.45030149677900   18.97378877343199   11.82765566950157
C         8.53496029643032   19.83493172174345   11.23427975387931
H         8.34605995186693   20.79811445918521   11.68233520799054
C         7.86100423053381   19.48380830610698   10.08419684162616
H         7.15456254038662   20.16638067029079    9.63607729732842
C         8.10177291234612   18.25225622587388    9.50650265019308
H         7.57576574845067   17.98087817164171    8.60507768236570
C         9.00250689535547   17.35919955939481   10.06834574116226
C         9.22386755929102   16.02321348402710    9.39879861236877
H         9.66550883257801   15.34232939376780   10.12685899486932
C        10.21458620132517   16.17751866257910    8.24442299306721
H         9.81241190530452   16.82984850667647    7.47440214560137
H        10.42148377072716   15.21080141593936    7.79081953776404
H        11.15608567609978   16.60912981577864    8.60596447899237
C         7.92617039458023   15.38428074249433    8.89674202395945
H         8.11033051976321   14.34403129133429    8.63525911175240
H         7.55731039779563   15.88539527630102    8.00606037340848
H         7.14814886076931   15.41739759613051    9.65780509908017
C        10.14223859031708   19.43447266937985   13.08874498325537
H        10.86528143421903   18.67291114430751   13.38339874659411
C        10.90422952894631   20.74097638540701   12.85479611008381
H        11.54155893657654   20.65832755162850   11.97923205098273
H        11.52544903465038   20.97038621422739   13.71760826194097
H        10.22128575117162   21.57208525737261   12.69883080763987
C         9.12855085365812   19.62723967778986   14.22180106366589
H         8.47249129136435   20.46817021493882   14.01054455850455
H         9.64520534805949   19.82618779412552   15.15860982040387
H         8.50380178054343   18.74535644119755   14.34935189378535
C        14.90221490405012   18.57276875949809   12.46542181995615
C        16.30395426792459   18.54735101100158   13.10630760073458
H        16.89280199044687   19.39684335080571   12.75549553873400
H        16.25360497748851   18.60700595142724   14.19173879609294
C        16.94520589419352   17.23367053334058   12.63421107137110
C        18.44638982302578   17.37433272103728   12.39262293418796
H        18.85130448613646   16.47147082698567   11.94116391346403
H        18.94712561236749   17.54016049704334   13.34414504356369
H        18.67052915340116   18.21097296385310   11.73909372757380
C        16.73522820086162   16.14392854617238   13.69858690898255
H        15.68756690809876   15.87307685168516   13.78269819053470
H        17.07272786615859   16.51714828797912   14.66347714885690
H        17.31053797258349   15.25367422290444   13.47077457371364
C        14.56847344029832   19.98193505086270   11.96114385278545
H        15.24863003387395   20.30049644980327   11.17553976352612
H        14.63990907386896   20.69392358266979   12.78303215141821
H        13.55262580010367   19.99763685451655   11.57827805255669
C        13.81460859474558   18.19221688718273   13.47835473912131
H        12.89366635116298   17.98270088622824   12.93481279510568
H        13.64524033583492   19.01094035796788   14.17639111316432
H        14.09911022933155   17.31475268630127   14.05124532763200
C        16.85758933967568   16.44351697022516   10.23313589099154
C        17.32503065793194   17.36040092420516    9.27130944756250
C        17.91173174048031   16.88807387720457    8.10695108406143
H        18.24382151434978   17.58840941769094    7.35654587835262
C        18.09524594800908   15.53681948425110    7.89495857904749
H        18.55410493876677   15.18347742820776    6.98390864387585
C        17.70288726138886   14.64417538275010    8.86966850560619
H        17.87323468989761   13.59002502119728    8.71557045929362
C        17.08033016818145   15.07023086701464   10.03630953237283
C        16.68576702395987   14.01633929550980   11.04464260073343
H        16.09879519131769   14.49302888638258   11.82919553427127
C        15.82180423002088   12.92075430539390   10.41605089904886
H        15.00780775610626   13.35842550518727    9.84741331987309
H        15.40204731074507   12.28688871240853   11.19446162421688
H        16.40421215726137   12.29005715043467    9.74935561508688
C        17.93611025898211   13.38158044013993   11.66413529659424
H        18.49100096840811   12.82383742794062   10.91334076578387
H        17.65480311447301   12.69474414520604   12.46022717255403
H        18.60424382248163   14.13540655814059   12.07540237501851
C        17.25392561668096   18.85691119621573    9.47428159693750
H        16.96554945110326   19.05630455194993   10.50657954676186
C        18.61008005079469   19.52685131180601    9.22490189175045
H        19.41271319860492   18.99538981863781    9.73261532708344
H        18.58816895313706   20.55185518941425    9.59097489281936
H        18.84503836626748   19.55803608267161    8.16443492824192
C        16.18847432566674   19.47017928655207    8.56831464968310
H        16.40440598813821   19.25269385574114    7.52426248190743
H        16.16016109459511   20.55194321093029    8.69460185240276
H        15.21438072594752   19.05058846589836    8.82790029733853
C        12.04249867040193   19.48491422095831    7.83387589434663
C        10.70484366972852   19.35230117021303    7.43948396240663
H         9.95970969334195   19.15005216458985    8.19473197658982
C        10.31936145984177   19.50292026527179    6.12337704310707
H         9.27712381572813   19.39017996744507    5.85470258671264
C        11.25175155836718   19.81734311795081    5.14820904202219
H        10.95074620495126   19.93847189520196    4.11779085623080
C        12.57455920255505   19.99759650567162    5.52011176145101
H        13.31072607903373   20.26840373779355    4.77500197510178
C        12.96232049947744   19.83959951438504    6.83552747734109
H        13.99671624354535   20.00464625931386    7.10086494861162
C        13.32758173184713   15.62470732305770    7.16623275483204
C        12.63251931071317   16.33271918023996    6.17346112924017
H        12.75354557461261   17.40384217439810    6.11242410702871
C        11.80893203977823   15.69338324126270    5.27247759492651
H        11.28992869244461   16.27367316227108    4.52206063434086
C        11.64824874299859   14.31625657866558    5.31761162705680
H        11.00191617764473   13.81408204856566    4.61216642938757
C        12.35002491034042   13.59085785200176    6.26646245482419
H        12.25947517258022   12.51278124162884    6.29673972922236
C        13.18085388149781   14.22989742126433    7.16522564782213
H        13.74909485099993   13.63317704545946    7.86724648405389

