92
CSD_code = BITREE | q = 0 | S = 0 | Stoichiometry = C41H39Cl2N7O2Pd | MND = 4
Pd        1.40377436588781    1.26880053592653    4.94128171324035
Cl        0.38789321900388   -0.06809464435067    6.51941563677016
Cl        2.31060039971984    2.84626765368972    3.52511574778163
O        -0.82136259188399    4.39402979051495   10.04646776629574
O         3.56992831244535   -0.91088872838371   11.19094031216381
N        -1.06135939447992    2.02511907575862    3.48708863530615
N        -1.03012745643993    2.99616455661356    5.42805010369214
N         3.58058710174487   -0.50331044791550    4.03544337191801
N         3.76675033732527   -0.29942046246291    6.18710634258473
N         1.16793604899695    3.93647001922486    9.04562721858460
N         1.65835425614394    1.95608474197062   10.61708868644805
H         1.88750615339097    3.22631845703534    9.01216760259234
N         4.07546783577715    1.10048723078669   10.26228226336238
H         3.67808890301092    2.01227933832680   10.08180393246916
C        -0.35573261753862    2.15293234270212    4.62524095681120
C        -2.18377770689328    3.42027072904787    4.80699982622289
C        -3.20494456843978    4.27544719089618    5.19310992472060
H        -3.20024819725294    4.77166931151418    6.15074556148068
C        -4.23996904592822    4.46640121247732    4.29784433960241
H        -5.05192733319169    5.12524751870467    4.56482732291579
C        -4.26570725924890    3.82722201794072    3.05919085647804
H        -5.09823853757420    4.00287646736885    2.39544493413082
C        -3.25320970369115    2.97426738787066    2.66402625395573
H        -3.27749522203042    2.47292863569136    1.70969137205895
C        -2.20760541515178    2.78330835939283    3.55350844323065
C        -0.70369466978051    1.16777629152866    2.38400320941201
H         0.30077021231797    0.76233486327089    2.60328311703768
H        -0.64561706077678    1.76264147513500    1.46641070158679
C        -1.68726838439004    0.03718132505734    2.22531349547235
C        -2.19144484671272   -0.60333893588352    3.34998769099638
H        -1.85816754604625   -0.30389428245673    4.33446994802710
C        -3.10183974168360   -1.63532160584157    3.21391120417091
H        -3.49301637044880   -2.12394475790475    4.09402036917100
C        -3.50252860563026   -2.04699806662523    1.95403743820325
H        -4.21127495275895   -2.85498341600822    1.84825736346200
C        -2.98862087097342   -1.42366931903865    0.83013499678091
H        -3.29287293486464   -1.74567321229548   -0.15489577905983
C        -2.08929301903214   -0.38092201128599    0.96538149928465
H        -1.69203539081584    0.10781119700761    0.08693145902260
C        -0.56858568346073    3.38703654467418    6.73712383445694
H        -0.44858530642720    2.48302290374695    7.34759916226555
H        -1.32601398091665    4.02295065651082    7.19853385376404
C         0.76623224670284    4.13706631685862    6.63953578059854
H         0.71707056564646    4.86719185599182    5.82840585476053
H         1.57258347822811    3.41365387457429    6.40453444729464
C         1.07246566050302    4.86264006640179    7.94876570541536
H         2.01186741283458    5.41706211884924    7.86125146261029
H         0.26728096403222    5.56150740208451    8.19078073608579
C         0.18727982168213    3.72293018977123    9.94593263899689
C         0.49170541875335    2.54951265912375   10.83125504092568
C        -0.41248099020058    2.09264438804076   11.78429501212823
H        -1.34514219629951    2.61665108001270   11.91991467122211
C        -0.08032629442861    0.96427656085969   12.51841791941002
H        -0.76005151004888    0.57776847723236   13.26347999977401
C         1.12883278816124    0.33042075827426   12.27601101286441
H         1.42870674932761   -0.56155496850928   12.80223668833206
C         1.97507856611538    0.87377313748753   11.31554096935645
C         3.27983202739988    0.23993278432995   10.93398095634496
C         5.21039096909875    0.69443416963467    9.47704111348290
H         5.38382501431035   -0.36103664659670    9.70249665646183
H         6.09519106001951    1.26730021765065    9.77452871736969
C         4.94042272640214    0.89564463959370    7.98330588541140
H         5.78747611625314    0.49431679551791    7.42394348656414
H         4.87336860485711    1.96200872076357    7.75800125282761
C         3.65085510908348    0.18424872564567    7.53807320210086
H         3.44717744120586   -0.66882573906817    8.19349418503507
H         2.78444290976680    0.85661513167949    7.57459158660464
C         3.12353561442637    0.18762479791670    5.10614216138013
C         4.61485252643740   -1.32262539564950    5.82241459467331
C         5.45157762650672   -2.15436965495782    6.55201410232488
H         5.53662899257464   -2.07599765330491    7.62392829685932
C         6.16004173684587   -3.10817380542680    5.84674648235330
H         6.81840943344861   -3.77667577488782    6.37985630449161
C         6.04030845273744   -3.23565463970836    4.46345405555414
H         6.60998351415196   -3.99906225111402    3.95617585869565
C         5.20264996928920   -2.41745809468551    3.73059721134035
H         5.09685393383037   -2.53353000988522    2.66375712901397
C         4.49146705931416   -1.45449411179177    4.43041399977639
C         3.17499875751882   -0.31224712425270    2.66204060377720
H         4.06265780977729   -0.37830651749533    2.02587483304756
H         2.76896190061983    0.70758384652515    2.57405151925804
C         2.14347984059526   -1.32512373409221    2.22914896176209
C         1.12888850467580   -1.70521795391596    3.10050217915435
H         1.07090921231833   -1.27293089907340    4.09872256920760
C         0.18976461862944   -2.64311576679885    2.71037014739138
H        -0.57847216200128   -2.94973085088437    3.40265757865223
C         0.23436820076824   -3.18427223279343    1.43718827680567
H        -0.50522876892353   -3.90907085094755    1.13208428480497
C         1.22861257024459   -2.79217768944834    0.55764977187065
H         1.26675259010555   -3.20872151334030   -0.43814906188264
C         2.18595671324242   -1.87571733669398    0.95570290525984
H         2.96886396202936   -1.58110543961884    0.27092756366382

