75
CSD_code = BITWIN | q = 0 | S = 0 | Stoichiometry = C38H32N2P2Pt | MND = 4
Pt        3.19610270660038    3.64159238518956    2.10399756017038
N         3.86864813665344    2.31663460088488    0.79041718746573
N         2.60712727001045    2.02898964629888    3.09659648278437
P         4.00441685519925    5.16240339101136    0.65569649774287
P         2.29044084337677    4.76697897060822    3.82949374406147
C         3.45172604883873    0.95485033710469    1.05974110998923
H         4.24628383193918    0.24190691395805    0.79579189475368
H         2.56570261662431    0.70854590302509    0.45126356076350
C         3.11231293824040    0.78500022052151    2.55080650548526
H         2.36917160504240   -0.01892571310364    2.65319800617096
H         4.01696425371643    0.47625828761878    3.10050956188035
C         4.32955972410333    2.68844521066106   -0.41448972679750
C         4.64880871682492    1.80354290262014   -1.46917764037338
H         4.48730222789073    0.74354714618091   -1.34461792556375
C         5.16002033851987    2.27128447960074   -2.65688233241038
H         5.39638632571374    1.56372352514785   -3.43977646640459
C         5.37368281123015    3.62872704907229   -2.88014915952050
H         5.77319829340458    3.97173673531069   -3.82201965783908
C         5.04860152744347    4.52742428198448   -1.88365776966683
H         5.18190793147699    5.59135996940106   -2.03348991715266
C         4.54099870874874    4.07418952013527   -0.67538669298598
C         2.11240545880442    2.10645881177440    4.34221735639146
C         1.84061647613536    0.99954952433860    5.17778629080283
H         2.07349634918368    0.00236488156238    4.83629711520178
C         1.28589345166276    1.17138563041192    6.42419594002097
H         1.08789748609272    0.30026592940962    7.03361151027682
C         0.97985729525352    2.43433175276104    6.92357404737823
H         0.54667250940443    2.54376903525603    7.90579526481398
C         1.25726769640263    3.54277223200115    6.14850459532807
H         1.05136634334420    4.53986641341342    6.51643266514060
C         1.80890773233010    3.38937503145446    4.88560960577486
C         2.72780844773969    6.24013487700353   -0.05386040975904
C         1.41742416706449    5.79009615111908    0.08792109246858
H         1.24336880574910    4.85152023971958    0.61455668755117
C         0.36734360741730    6.53144070920804   -0.41587593806869
H        -0.64863628722423    6.18587876187482   -0.29446886111564
C         0.62299394054082    7.72788880094892   -1.06834702526854
H        -0.19561309750145    8.31507376285443   -1.45787713205466
C         1.92580140394347    8.17375686777747   -1.22163033229594
H         2.11991097171228    9.10469630879917   -1.73470020106172
C         2.98127984526787    7.43399292285110   -0.71769524136170
H         3.99767462776431    7.78608235632624   -0.82812207764256
C         5.37915946157955    6.27166685124271    1.06730326424371
C         5.11806668421965    7.42355372393597    1.80561832778186
H         4.09279818687507    7.68373590399211    2.03237630193658
C         6.15784281495670    8.22119387548418    2.24048434354303
H         5.95075193396650    9.11406745803563    2.81231670416291
C         7.46743592098663    7.86994430535597    1.95008697332725
H         8.28082258846479    8.49280831547743    2.29219483370261
C         7.73332677313938    6.71911804089896    1.22653893657621
H         8.75444149004169    6.44451739412292    1.00505887460180
C         6.69449749486153    5.91557115233001    0.79090696280179
H         6.89351390340214    5.01084282755389    0.23314044446518
C         3.47182295328058    5.75641158953066    4.78810101366200
C         4.81635911329775    5.46801524869313    4.56852043781332
H         5.07126908333020    4.69809545532563    3.84054639917650
C         5.79783113851585    6.15921983910315    5.25090142582187
H         6.84017741963601    5.94148907351643    5.07054454138109
C         5.43869461777870    7.14174755969730    6.16083635248521
H         6.20288298521030    7.68958262314894    6.69241105410764
C         4.10175064060740    7.42468840814131    6.39009895573189
H         3.82721461103887    8.18882806458416    7.10302791086764
C         3.11502391948442    6.73525426706278    5.70755422434465
H         2.07167253101185    6.96261497419412    5.87764588540678
C         0.84428369728820    5.84020771164525    3.61356174251470
C        -0.44278180732753    5.32439586653480    3.72007093765373
H        -0.57846141890255    4.30033329731053    4.04005518010433
C        -1.53341099987685    6.12130627591658    3.42101022746322
H        -2.53273961686346    5.72065117835461    3.51034707504815
C        -1.34646853738129    7.42834544734322    3.00201669214903
H        -2.19959800819573    8.04686256729259    2.76497494009657
C        -0.06461326670097    7.94287333840321    2.88216265208260
H         0.08151026730159    8.95977874085655    2.54806358314513
C         1.02670955661476    7.15153091239910    3.18149467297208
H         2.03101292577248    7.54163094850605    3.08483835400345

