56
CSD_code = BITZAH | q = 0 | S = 0 | Stoichiometry = C24H25BN2O3Pt | MND = 6
Pt        4.13531861475301   -0.37207707535937    2.98306236628730
O         4.78743726992787   -0.62405731851941    1.09667065200544
H         4.31157446428940   -1.33772789305549    0.66127528225750
B         4.18766759640549    1.66662311784160    4.98189589606634
O         3.60585495629326    0.22240734408159    5.01077334944581
C         2.27357030437728    0.17454921541641    5.46586596969745
H         2.14667425619679    0.88354594758386    6.28828286604469
H         2.05821251009665   -0.83516771947099    5.82133561197818
H         1.55774374352910    0.43752562564461    4.67704868434707
O         3.98046253901295    2.35888141999285    6.23280310898498
C         4.56343926100033    1.81741688285464    7.38622159550559
H         5.65314241397789    1.73040191813648    7.29177196489356
H         4.16723863302472    0.81969997982545    7.61347751680229
H         4.32999004930517    2.48757231678865    8.21627323939320
N         3.40929497710728    1.71394770972975    2.60433526606801
C         3.49961451548219    2.43556701961394    3.72803055937089
C         3.12730942965245    3.77770884974352    3.73497628227317
H         3.20242057454857    4.31910086027936    4.66410080565879
C         2.67335353113838    4.37366564060156    2.57434390424925
H         2.37257055330463    5.41177110820971    2.56428304251867
C         2.62749585939616    3.61507739040175    1.41252433462119
H         2.30714817944813    4.04303171845776    0.47531331552966
C         3.00541577460234    2.28728483494514    1.47870686154045
H         3.00541173113537    1.66480374702601    0.59433473832847
N         5.94821968142153    0.65659192654035    3.49156153351944
C         5.73139874719713    1.54456097560573    4.46277178140324
C         6.76025943606322    2.40505709269758    4.84857247106236
H         6.56375016963530    3.14716603544366    5.60676925381129
C         8.00232458341738    2.30714760559331    4.25066594115745
H         8.80827266597921    2.96412628819798    4.54607650159034
C         8.19695603146202    1.35696841175983    3.25686544357854
H         9.14971379114055    1.25080112011069    2.76234216035236
C         7.13050079827967    0.55262607800181    2.90191685087929
H         7.20485387451970   -0.19008029151378    2.11854006717535
C         2.38369441497602   -1.32142800271176    2.54978340805419
C         1.64795505728049   -0.98383177517915    1.41785236425766
H         2.02569412193538   -0.24932285392842    0.72010616990808
C         0.42491333937042   -1.57977315608368    1.14763743079691
H        -0.12475406130255   -1.29462270551909    0.26160161656269
C        -0.08766896244767   -2.53554653431919    2.00482224210717
H        -1.04039446168299   -3.00040584535200    1.79726401860297
C         0.63765873868205   -2.89661601852624    3.12661417345375
H         0.25390666775184   -3.65111364894038    3.79854248857630
C         1.86011817392355   -2.30063129041390    3.39227099624966
H         2.41160186183504   -2.61946396455934    4.26678014412200
C         4.94630977944214   -2.15775127068829    3.50009448724656
C         5.59392605109563   -2.20337027357424    4.72849973720039
H         5.61628558774799   -1.33073550349281    5.36889941438229
C         6.20881768734444   -3.36744088061770    5.16328810348328
H         6.70551559797060   -3.38417390358398    6.12320104164782
C         6.18798975640937   -4.50232087229022    4.37218751234527
H         6.66969254068931   -5.40879515624608    4.70854218277494
C         5.54048019669080   -4.46790669823006    3.15055374409497
H         5.51210861165063   -5.35070652163583    2.52820840146431
C         4.92010550286132   -3.30526846946247    2.71756099186017
H         4.40703228066649   -3.31549253783588    1.76580011238794

