48
CSD_code = BIVBOZ | q = -1 | S = 0 | Stoichiometry = C24H10F10N3Pd(1-) | MND = 4
Pd        2.25016710420447   -5.74139900465209    8.27049717780724
N         1.30411062959483   -6.95557367317208    9.59287167296550
N         0.25661631633719   -6.17668084446303    9.72659261623031
N         0.44248905645216   -5.12965240805922    8.95785857283027
F         5.54061569176925   -5.46740987228905    8.78316102717444
F         7.51282609405794   -7.14377749129173    7.84322608577863
F         6.84342118635469   -9.27904592978136    6.28793275905492
F         4.23011945213998   -9.75681799333213    5.65882268312018
F         2.26536269875553   -8.03797032244931    6.64196529359865
F         3.13882362298346   -3.25754178981393    9.25600085513014
F         4.10290336366596   -0.90262122079872    8.11117547049922
F         4.33564257043564   -0.74909874091958    5.39573882813582
F         3.64599707003273   -2.87452324538663    3.83591223768838
F         2.70993493185895   -5.18368830706213    5.01098091978674
C         3.86902877837809   -6.73922219099054    7.73224014712640
C         5.21181322953435   -6.53350194745851    8.01670803676193
C         6.21712628476541   -7.36770900393033    7.54480652043347
C         5.87947106488238   -8.45685091989566    6.74929399672619
C         4.54534638595282   -8.69836884267376    6.42967648353676
C         3.58124772854642   -7.83658619322428    6.92402020918170
C         2.90210674485142   -4.24610067656422    7.15529769480193
C         3.27831661018604   -3.13607182233206    7.90791808787720
C         3.75706806041447   -1.96124057510508    7.35381411486400
C         3.87664814504018   -1.88028296132324    5.96832313600927
C         3.52205969757255   -2.96597738938640    5.17543163246479
C         3.04632134388331   -4.12209363287974    5.78054211159832
C         1.31446016955937   -8.16077263003203   10.24511416404245
C         0.18535820151071   -8.68833832592245   10.88608816683266
H        -0.73340431805397   -8.12181881128819   10.87032924045058
C         0.25825236983019   -9.91372583360293   11.51373329220514
H        -0.61825306867363  -10.31680703156378   12.00317061984465
C         1.44264317183457  -10.63543890264827   11.51898326909140
H         1.49001179994115  -11.59733845154704   12.00939082623523
C         2.56535148697159  -10.11781099574014   10.88992521830502
H         3.49098862926457  -10.67633937690207   10.89368345950776
C         2.50760791326737   -8.89381250790177   10.25870039775745
H         3.37761442459416   -8.47229895476945    9.76948732347779
C        -0.48589257993641   -4.12196792573739    8.98340393387350
C        -1.51878390153179   -4.06352064671925    9.92881208462751
H        -1.59258857975163   -4.84769961256915   10.66700906529096
C        -2.41125519330948   -3.01282258037515    9.91108272135716
H        -3.20309499209921   -2.97135509019543   10.64699026399064
C        -2.29936851121790   -2.00683853579970    8.96283713892813
H        -2.99985260158340   -1.18385423116413    8.95932210522270
C        -1.28272658454143   -2.06077317054393    8.02066497964382
H        -1.19389090373741   -1.27998297849912    7.27820411146477
C        -0.38329138659039   -3.10526178097103    8.02584315473035
H         0.41193059171700   -3.16571462622100    7.29241609190185

