61
CSD_code = BIVCAK | q = 0 | S = 0 | Stoichiometry = C25H33ClNY | MND = 12
Y         2.78606199159167    9.60652939817010    5.08396903526926
Cl        1.90822737599428   10.36127302678180    2.92223650504998
N         4.13798160521764   11.77186892363938    5.04536181826564
C         1.84755402632295    9.05716627768614    7.48569830806411
C         1.55049501746999   10.43030569491951    7.22959964160772
C         0.65195647990629   10.48711118673173    6.12380653823975
C         0.41636075756239    9.14769166186895    5.68525588831589
C         1.14704941721233    8.26485768974208    6.53699582181682
C         2.61864963697781    8.57213036649865    8.67992072357254
C         1.84986164404525   11.54147507132270    8.19921064247839
C        -0.11809733339302   11.67917432374132    5.62528186304635
C        -0.62283756925245    8.74215217800210    4.67715101946210
C         0.97455603117019    6.77045362143968    6.55153155075131
C         5.04303084394108    8.61935214169233    5.66819049596220
C         4.22046213019620    7.47137924659601    5.60769088161524
C         3.80309304932654    7.30215692469366    4.27066778881680
C         4.39198114319200    8.32296384994743    3.49465625628978
C         5.16422273225225    9.14166765594770    4.35078740423419
C         5.95726038561193   10.37395962563334    3.97690133353071
C         6.72539874090483   10.15477562593670    2.69212777359654
C         8.07970146214262    9.85008331723188    2.76039597638593
C         8.81511238054653    9.60679492717111    1.61448963658768
C         8.20425039854007    9.66543018346680    0.37443036846097
C         6.85562653871827    9.96487419640181    0.29378732304044
C         6.12098242564495   10.20679928995442    1.44134592069229
C         5.03183626173254   11.60469892866711    3.87517965854404
C         3.22744562872452   12.88921148038739    4.74112222969000
C         4.93650032409100   12.15829992393836    6.21701175802862
H         2.83178150731145    7.50868901257931    8.60733055685271
H         2.04174173213727    8.73636489484610    9.59249195046367
H         3.56655038441330    9.10196198100481    8.78734600087172
H         1.11195736922390   11.53311444577689    9.00545613137659
H         1.80407182480690   12.52217322935293    7.72740125950788
H         2.83084260279340   11.41605458808002    8.65727423425556
H        -1.18240754095854   11.53597817641197    5.82067798436134
H         0.00587280003709   11.81020097971210    4.54897539841324
H         0.19348229708177   12.59289084808963    6.12676281217032
H        -0.64564635727278    9.43607029017565    3.83722954615393
H        -1.61346932524353    8.74180674839159    5.13926889672361
H        -0.42964087477956    7.74083916753105    4.29362356143673
H         1.70172186096322    6.29286274615852    7.20372254467436
H         1.07609714338332    6.34159738771999    5.55347563230992
H        -0.02164146479118    6.51818725500336    6.92150016146825
H         5.63588823636817    8.91556112536299    6.52445108793077
H         4.06312618990506    6.77057420863056    6.41329314341591
H         3.26029962065029    6.45240501144912    3.87833673925189
H         4.34744356328882    8.39269332135812    2.41798241310724
H         6.69399012097772   10.55231961463270    4.77013755144598
H         8.56553828909608    9.79764612200057    3.72491500365582
H         9.86665274982605    9.37122850861221    1.69094996247125
H         8.77469955055128    9.47693456991538   -0.52300637314573
H         6.36877498079032   10.00921832557555   -0.66949031283287
H         5.06920932184962   10.43086672528171    1.34686294598092
H         5.64766437721292   12.50833179376887    3.74288799792359
H         4.38707936780972   11.49416511966043    3.00031703236864
H         2.57953800588738   13.08101071917709    5.59585397835650
H         2.61013564662438   12.63830336453670    3.87802252236222
H         3.79241484510426   13.80457212448344    4.51942513793570
H         5.60828952698363   11.35275941423175    6.50666797530088
H         4.27779869216313   12.37842885396613    7.05595617893714
H         5.53691942941765   13.05305258831017    6.00289618307523

