118
CSD_code = BIVJOI | q = 0 | S = 0 | Stoichiometry = C45H69O3Y | MND = 3
Y        11.33276788436749   50.53781404474184    4.57209843381776
O        11.43692501473921   48.59876449031907    4.42175333320110
O        11.51495377148945   51.42249440126683    6.25993365128479
O        11.13982229614768   51.56411877239034    2.95244025850216
C        11.03001472580767   47.59386381555683    5.19350744711409
C        11.80231680688308   47.14191912609435    6.29215157760294
C        11.24430417962694   46.19993036045306    7.14797082414045
H        11.79061347254699   45.89278203395316    8.02645514694465
C        10.00424109473056   45.63370661691433    6.93136661114463
C         9.31401036130164   45.99049922686716    5.78181056650202
H         8.37121699494727   45.50289709996942    5.59550119458555
C         9.79511060533783   46.94235726078265    4.90382958966970
C        13.21415487511694   47.62599923161466    6.63767951190416
C        13.91299812968208   48.39122711855347    5.50793073072419
H        14.95338908810839   48.57234880989535    5.78014330003265
H        13.43237010051762   49.36399686268796    5.34288483843335
H        13.88643737617866   47.81767931066177    4.58312182601092
C        13.14586450419583   48.53584644988146    7.87350036051392
H        14.14884192486026   48.82482036379352    8.18364081556808
H        12.66241642217176   48.02621781070312    8.70348506664652
H        12.57931563869501   49.44033590547876    7.65539435941139
C        14.11124790487039   46.41225994553351    6.94646698009844
H        15.14341185761272   46.73528850205323    7.06822760489503
H        14.06713813336470   45.69526388645156    6.12972429817042
H        13.81815767983839   45.90701677731003    7.86088124777644
C         9.42683549787463   44.62521152928084    7.88050100323543
H         9.98879706816122   44.60156549413867    8.81107068350247
H         9.45457738717365   43.62823971359098    7.43949887525104
H         8.38755344404272   44.85993554910207    8.10613476521839
C         9.02463083344287   47.27924767848333    3.62686139338653
C         7.78154056916428   46.40181855483204    3.42766930345022
H         8.04792831522592   45.34861545034401    3.39472581185455
H         7.31397555477372   46.65878292438939    2.47897103443798
H         7.04822509528647   46.56044506258744    4.21506475947947
C         9.93801738265782   47.05417236543630    2.41397703350841
H        10.20989955788576   46.00276211131242    2.34718192781490
H        10.84928227610261   47.63736635205736    2.50412907764755
H         9.42795946998003   47.34097741134892    1.49607994008775
C         8.53817352957552   48.73606395997292    3.66575969030568
H         7.89138364319162   48.88683872997414    4.52956508407743
H         7.97413134806667   48.96895437937471    2.76321894282007
H         9.39045129369447   49.43351711492206    3.72281378440227
C        11.21509159370068   52.18771106232337    7.30752219340161
C        12.14266659811968   53.16609405603655    7.75517638680231
C        11.85478777916496   53.88404312161522    8.90275203854237
H        12.55078299435464   54.62017010383558    9.26913125870434
C        10.68556386598205   53.69574179273683    9.61954084613654
C         9.76568677059994   52.77678187385539    9.14621879130239
H         8.85043288986732   52.66060124280519    9.70230766553997
C         9.99040334231756   52.02204798063894    8.00613201078072
C        13.42572514995132   53.44700401141391    6.97253189506432
C        14.28287815226776   54.55413677379393    7.60010508747460
H        13.74401408848308   55.49754335110794    7.64132923625660
H        15.17118994921315   54.70348039760062    6.98854255329996
H        14.60935749371085   54.28270655557961    8.60110095945096
C        13.05421394694867   53.91683227649473    5.55824853150567
H        12.45970744049161   54.82662274370195    5.61579274383758
H        12.46886147343070   53.16337013577008    5.02992520521473
H        13.95165698809001   54.12762065367377    4.97880418353398
C        14.29791548732656   52.18592643904099    6.91240178819380
H        14.58900452114569   51.88937232884062    7.91825651918524
H        15.19879007013356   52.37538682905969    6.33016889873614
H        13.75424824216449   51.36092645259135    6.45793046485125
C        10.42510530824143   54.46266439398438   10.88288032890184
H        10.93244900295440   55.42478006534208   10.86438466706131
H        10.79340941111538   53.90470692345328   11.74519173336148
H         9.35932694665692   54.63062255579830   11.02307631185588
C         8.91238077474577   51.05725767385613    7.50303212648196
C         7.66119109180377   51.03915797477236    8.39341930760621
H         7.90332668898371   50.71676851973712    9.40253557809852
H         6.94054982036725   50.33369580400444    7.98307707749523
H         7.18787790230698   52.01711183970842    8.43220747622641
C         8.45284700777471   51.50142956436373    6.10462826377739
H         9.26462782313667   51.39170350681476    5.36353691620420
H         8.15538190084599   52.54867563809318    6.12747243515544
H         7.60102897455265   50.90683380543562    5.77498927247827
C         9.44918344440297   49.62073810843049    7.45747590667585
H         9.79553573460996   49.31826853314890    8.44356383254476
H        10.29075832206484   49.53262553224311    6.76541482723258
H         8.67240233946962   48.92530105142779    7.14071003247173
C        11.51832049916316   52.34952661043016    1.94661368036306
C        12.74984091710159   52.14025019144518    1.26938362855992
C        13.07891178760262   52.96833056146554    0.20959314334004
H        14.00651799162371   52.82974379332357   -0.32060100646475
C        12.25012301032091   53.99198294842488   -0.21775437646800
C        11.05626233469458   54.19195031789172    0.45143473756595
H        10.42083667649542   54.99312284500534    0.11217518146511
C        10.66771498986422   53.40450155976733    1.52198294919567
C        13.70992059643546   51.02545386456453    1.69261976988765
C        14.19246803949051   51.27759076465449    3.12984112630109
H        13.34494743926027   51.25880463647024    3.83992326111463
H        14.66505635065838   52.25677543985691    3.19664825637487
H        14.91536348470008   50.51731743168875    3.42826328191555
C        14.96819383576863   50.94478859186098    0.81571686333237
H        14.71132760214418   50.74748197738128   -0.22156914814882
H        15.59464248002429   50.12622176285885    1.16616315439840
H        15.55184660040601   51.86020983309164    0.87229419863202
C        13.00824599602931   49.66431702042522    1.59448124695472
H        12.68124791634375   49.48896911706763    0.57114373700809
H        12.12761524730446   49.62727845352701    2.24071585367268
H        13.68721306208964   48.86280912466145    1.88450145509127
C        12.65473661263793   54.85922391643548   -1.37392417725483
H        11.86384432222122   55.56025886537131   -1.62906926109216
H        12.87543567034955   54.25126875973053   -2.25068736517164
H        13.55240639500578   55.42749887660308   -1.12933005938787
C         9.34952959357342   53.68184016191636    2.24361301220852
C         9.65119267604124   54.07278143490867    3.69734356937576
H        10.18611657166132   53.27799403397277    4.21589908334009
H         8.72735450546654   54.27983496323435    4.23490022232366
H        10.27078211023193   54.96729801650132    3.71760050104733
C         8.55368718413668   54.83801259292164    1.62421337117042
H         7.62741854485354   54.96847892538032    2.18143994533491
H         8.29416056029287   54.62974957171981    0.58897857256700
H         9.10697276095292   55.77263825815834    1.67472178370619
C         8.44836755642869   52.44004097794195    2.19001348018975
H         8.95694376458120   51.57327106191642    2.60615976346472
H         8.18719742667883   52.21853379914224    1.15690247426904
H         7.53157244656518   52.61262466002283    2.75191605349170

