56
CSD_code = BIVWUB | q = 0 | S = 0 | Stoichiometry = C22H24N4O5Ru | MND = 6
Ru        4.29331191750694    1.17104277755061    9.53121570840078
O         3.63192394169400    2.23637422349070    7.88357288899700
O         6.06645164510249    0.73336157564821    8.62136281202290
O         2.44134650795098    1.56844274134483   10.40564535950371
O         3.47267934081990   -0.45170390765648    8.53471049635638
N         3.69159924881958    4.25887474445413    9.71981809725484
H         3.02071798923888    3.52391630623415    9.93626641435154
N         5.09032126331046    2.60927105898077   10.42675130650278
N         5.88934830855699    2.38782426153752   11.41480546722309
C         3.17019124799433    5.35333395397877    9.03124431231276
O         5.95739354524462    4.65670635756456    9.78722614161762
N         5.02509883375069    0.26479245398009   11.13340273704840
C         5.70293104052419    2.13581315072999    6.72464580969458
H         6.19822599133115    2.50507891620218    5.83938656643833
C         6.43334086216769    1.26716504591175    7.53541883093694
C         3.79481504308416    3.50166632183674    5.89995422599966
H         3.92995977189964    3.10945116180315    4.89537866966742
H         4.30167315633758    4.46250553257115    5.96765959456221
H         2.73663579497273    3.64921632036975    6.10010352744293
C         1.21134921284557   -0.01717441599822    9.11541090421932
H         0.20420866604032   -0.35216007187341    8.91828932676595
C         5.88042885470586    1.08997481602837   11.79521635405101
C         2.24362281444432   -0.67498142542363    8.42636050650886
C         7.83631134353421    0.92003128239485    7.08190577098536
H         8.45753854598353    1.81235976538660    7.12019364425761
H         7.82634103599575    0.54931448152392    6.06009588743640
H         8.25459442445644    0.16525313623348    7.74266725136719
C         4.38236164535737    2.55803293085923    6.92794182159827
C         3.95128893279300    6.42987920266659    8.62101199386588
H         5.00484126493506    6.43763395067551    8.84440624522932
C         6.54314923585396   -0.69021312639036   13.24700373086776
H         7.13398421267482   -1.07852945184448   14.06245744355727
C         1.23459503141301    6.39241523128851    8.04855848988151
H         0.17756152550296    6.37485743029149    7.82629761942465
C         0.10083895163620    1.55599924983869   10.68197817016963
H         0.36165547424172    2.30922232954856   11.42150652919482
H        -0.44918386146337    0.75212602624358   11.16475978399789
H        -0.54160619783541    2.00069457864219    9.92463363513051
C         1.80675865774337    5.34351256258768    8.74108793369223
H         1.20598940048732    4.50174239355588    9.05502549601960
C         6.65855319357527    0.62697636067596   12.86504600906912
H         7.32919533909747    1.31702730932524   13.34864880852388
C         1.36119667997662    1.01621411900934   10.03455843758676
C         5.65342384874248   -1.52031907145652   12.56557033018055
H         5.54136619328327   -2.55668762106864   12.83981149453195
C         4.92065342610664   -0.99953867605393   11.51570579947521
H         4.23278165655678   -1.61150159872015   10.94597512797927
C         2.01272723383720    7.46302230382941    7.63811701159290
H         1.56483280490089    8.28288118280157    7.09696224365732
C         3.36682963404755    7.47401587120556    7.92685459935557
H         3.97839153673374    8.30580165931128    7.60980848757819
C         4.99214300714452    3.95246620606621    9.95973252818199
C         1.83184252438181   -1.78484990677795    7.47992647295165
H         2.71795573043454   -2.23683691371426    7.04169445508013
H         1.20585061446071   -1.37947655567085    6.68810667605334
H         1.26116195507662   -2.54241854154399    8.01230401365472

