35
CSD_code = BIVWUY | q = 0 | S = 0 | Stoichiometry = C12H12N2NiO8 | MND = 6
Ni       -1.48486978276187    7.85634663712738    3.12980153818375
O        -1.35602599378753    9.43935684415797    1.98798951102672
O         0.02898297983041    8.34628073284987    4.08723494751196
O         1.81892213767925    7.91204402585900    5.31298183187996
O        -0.23699064225816    6.57016003236620    1.47777302554513
N        -2.42238489262894   10.17366420053059    2.02482380406261
C        -3.65471687559561    9.65753227465877    1.84453379828653
C        -4.76086312575370   10.48642762762874    1.83012838965563
C        -4.61975549611633   11.84995584801862    2.01681821704041
C        -3.34002344599190   12.35564512807719    2.20075991512640
C        -2.26526362160617   11.49883733243592    2.19297260648627
C         0.86956644035085    7.57500991074855    4.63064185824725
H        -5.72121342286310   10.02379795760838    1.66331264694115
H        -5.47865979964871   12.50109611201336    2.01912835688271
H        -3.17221451734638   13.41037329460501    2.34915927442289
H        -1.24431348581469   11.82155112082578    2.33015254078739
H         0.14120980549185    7.35012921347905    1.05610483504900
H        -1.03664352094918    6.34374111427451    0.98628195023883
O        -1.61440730626269    6.27384570775007    4.27227006931205
O        -2.99933034544360    7.36656619413188    2.17341607994110
O        -2.73205035270737    9.14273828360036    4.78243397348725
C        -3.84026417081858    8.13788363432204    1.63072217650238
C         0.68413842833283    6.05538531708728    4.41656405102271
N        -0.54816539679493    5.53935598266654    4.23594907094965
H        -3.11014066649944    8.36356861805264    5.20577977849339
H        -1.93298482462946    9.37006473918935    5.27431899028225
O        -4.78943499313150    7.80090193274174    0.94804028594046
C         1.79019988565717    5.22636929650696    4.43150353576200
C        -0.70536284775585    4.21415407755203    4.06803466101381
C         1.64907581106809    3.86283891924130    4.24499339503753
H         2.75052702247063    5.68896396828310    4.59873810257179
C         0.36931166441921    3.35724968313349    4.06072847064935
H        -1.72631097225949    3.89151135136896    3.93068940746705
H         2.50791190829232    3.21162593710888    4.24296503594670
H         0.20144441583381    2.30252694999817    3.91225386824585

