48
CSD_code = BIWJID | q = 0 | S = 0 | Stoichiometry = C12H21AuB10ClN3 | MND = 2
Au        8.13655081057678    2.27936936857100    7.87941939279940
Cl        8.55705800257992    0.52624813971417    9.23128783893286
N         8.48362493477097    5.06202557063849    6.86811954466860
N         8.18015234458319    5.94234245105097    5.94309717126872
N         7.34880208289788    5.33258728957534    5.14221310895565
C         7.10727110815950    4.06335943758915    5.55824852956980
C         7.85963639591558    3.87198089884724    6.71813304637416
C         6.79484272375840    6.04288733478244    4.02687114253928
H         7.44061466638316    5.94319992207936    3.15279846088073
H         6.72971583585950    7.09735952467683    4.29079005612345
H         5.80669619742959    5.64784128968183    3.79630881290417
C         9.45243560198564    5.40016028472156    7.87771479561818
H         9.22376722620017    4.78521763499257    8.75451092236440
H         9.30239704340507    6.45530258360091    8.12581154817300
C        10.89334297261680    5.19666539162335    7.43052382929941
C        11.56061490136382    3.76747834636661    7.64102143890749
H        10.91801664312206    2.99555413443227    8.04886442100060
B        11.23603883569320    4.24175192900161    6.02889889080612
H        10.32535760289374    3.72544201995888    5.49232149791585
B        11.53218737650981    5.97898179886649    6.05816329873320
H        10.81135700729778    6.68752304843290    5.45636191241191
B        12.03347232975871    6.44878219911675    7.69054149639172
H        11.62168200030502    7.45682370829889    8.13572005669482
B        12.03131426996959    5.01526493232347    8.71702092428964
H        11.57802774950984    4.98182097748853    9.79938340035137
B        13.20584090897729    3.87246517758681    8.07937066672275
H        13.63988453899416    3.05590438026958    8.80145871935211
B        12.72073488574092    3.40365362444152    6.44699978005470
H        12.83673044378715    2.28534879441158    6.11021202312922
B        12.75168126684853    4.85416458363058    5.40239152211961
H        12.99691960429247    4.80036310912798    4.25383849511805
B        13.25612570779227    6.22871743746759    6.42939349539589
H        13.85027413661833    7.14095965141632    5.98614219309135
B        13.55581088757424    5.62218384570138    8.08963917453667
H        14.35789060816274    6.10165480793853    8.80133699566371
B        13.99340614977386    4.62149899353916    6.67215018667033
H        15.11384588922320    4.39711712624869    6.39849718353992
C         6.22330289688632    3.12038513896294    4.88938491998246
C         6.25393020234943    2.94767429171509    3.50681441000674
H         6.95637465225259    3.50444661813559    2.90433423267607
C         5.41709564250366    2.02635465707584    2.90438082604462
H         5.45329984452190    1.89302017119777    1.83352420031205
C         4.54363468977803    1.27201695663099    3.66948451077072
H         3.89361151393082    0.55260855738628    3.19510374076024
C         4.51621600393134    1.43187889679831    5.04574186514873
H         3.84483253174155    0.83855816189912    5.64733822955576
C         5.35175662633386    2.34756272075588    5.65571226060894
H         5.33422370439518    2.47539208124037    6.72700483075595

