45
CSD_code = BIWMID | q = 0 | S = 0 | Stoichiometry = C22H14Cl6O2Ti | MND = 12
Ti       -7.52072490166725    2.83853209708763    9.33627222059098
Cl       -4.80669135970185    2.67196104049271    5.81673208023125
Cl       -8.77629247648868    0.30803240082740    8.41219084106924
Cl       -7.18304055520561   -1.65034930539339    3.63238297542520
O        -6.70723889793280    2.22612464701155    7.94934366332972
C        -6.73947800481223    4.84333552351769   10.93157880751442
C        -6.46727275512492    4.10080396714266   12.06468876832061
C        -5.54764922681180    3.08746134166670   11.73137157963444
C        -5.24280900088623    3.19142322250162   10.38041566599138
C        -5.99955929990352    4.28312683660062    9.83415706941869
C        -7.75932479612462    0.32481343573747    7.02259181326332
C        -7.88832783176669   -0.59912430055250    6.00374595735258
C        -7.03730844864000   -0.50783712084793    4.91031955420838
C        -6.07359620947812    0.48814093851333    4.82713579185282
C        -5.96361134414995    1.40325916330886    5.85628651024336
C        -6.80045039654020    1.35264118330150    6.98516796836224
H        -7.32788811207763    5.74895080752384   10.88901113758143
H        -6.88177913531621    4.26451895853692   13.04566466048379
H        -5.14215812908566    2.36430150876150   12.42166337182753
H        -4.46455682941705    2.65303813800935    9.85074750388431
H        -5.68487001343465    4.84084266891428    8.95502268890243
H        -8.63736630939365   -1.37181252769267    6.05806700511232
H        -5.42020760541353    0.55245346220586    3.97236105590893
O        -8.33074246091317    2.22649530503127   10.72517269901934
C        -8.29967910908648    4.84607598540018    7.74613615165230
C        -8.56963045362238    4.10219320154245    6.61303675042506
C        -9.48823015854465    3.08818336683055    6.94596480084074
C        -9.79476363058128    3.19282119952280    8.29687501360820
C        -9.04074789010790    4.28640463865831    8.84261889707146
C        -8.23684157477686    1.35351864742388   11.68977331691716
H        -7.71217349017655    5.75228228294957    7.78868209928960
H        -8.15405393378325    4.26574884861128    5.63247265831241
H        -9.89236227218500    2.36413558033130    6.25577431803106
H       -10.57365660142923    2.65448454031617    8.82572504331755
H        -9.35538710898972    4.84330396674045    9.72219470473510
C        -7.27803318301982    0.32564476185355   11.65219332394097
C        -9.07309336789126    1.40461844252741   12.81905158118821
Cl       -6.26208474872756    0.30827425760808   10.26192932631603
C        -7.14854913346036   -0.59791477704865   12.67132970492416
Cl      -10.23003714551078    2.67328002912529   12.85860436794994
C        -8.96266937989109    0.48984069071993   13.84846457796311
C        -7.99904106650188   -0.50620948516726   13.76514138288333
H        -6.39959632933778   -1.37068149400099   12.61690730478153
H        -9.61568785688487    0.55442017063212   14.70350367631358
Cl       -7.85283746520974   -1.64835824679593   15.04332961001349

