35
CSD_code = BIWMUP | q = 0 | S = 0 | Stoichiometry = C14H14N4O2Pd | MND = 4
Pd        0.00053415421960    0.00088395661004    0.00068960521109
O        -1.86051370675652    0.68119586982491    0.40299180016901
N        -0.16094319870375   -1.27389020874781    1.61030857517445
N        -2.35344164140487   -0.55554523333316    2.31058216988023
C        -1.23031911008646   -1.28368838586320    2.44935118040198
C        -1.22761416611195   -2.13503364613535    3.58123890765436
C        -0.16998671079887   -2.96327114344628    3.83421331556286
C         0.90751663670124   -2.95343562014167    2.94643824255505
C         0.86465000597490   -2.10247851797707    1.86795668715348
C        -2.59920229478551    0.30927215027155    1.36352732995102
C        -3.95806254890938    0.96760248271216    1.45793329861473
H        -2.09564830386742   -2.09516150743913    4.21782846623932
H        -0.16713270767367   -3.61285271472196    4.69677457660569
H         1.76142173063250   -3.59394047384203    3.09498320412482
H         1.69023686645097   -2.07210917042150    1.16653158439871
H        -4.62505526756429    0.34645836860665    2.04520870291546
H        -4.36099110872256    1.13275350868469    0.46191878454842
H        -3.84709850369942    1.93205997900353    1.95068769145623
O         1.86054310333843   -0.68109138449929   -0.40293045321974
N         0.16090395617491    1.27375820994157   -1.61043702916539
C         2.59905114346335   -0.30950609344084   -1.36372365058602
C         1.23024988542785    1.28353372573724   -2.44951105495220
C        -0.86462016450680    2.10247246255987   -1.86794708500566
N         2.35332115092269    0.55530989283625   -2.31078979507314
C         3.95782032897085   -0.96799096204508   -1.45819761740900
C         1.22764234919522    2.13509327545209   -3.58123407608099
C        -0.90739278060558    2.95362737731431   -2.94627879818126
H        -1.69013103290275    2.07220944273842   -1.16643294039474
H         4.62481229563776   -0.34690767820533   -2.04553872753187
H         4.36083543116955   -1.13312093761174   -0.46220296057766
H         3.84673493965022   -1.93244061380837   -1.95088625911727
C         0.17009539547050    2.96347861272309   -3.83406682652502
H         2.09569848848538    2.09527715224366   -4.21779345633524
H        -1.76120380664069    3.59429450936310   -3.09465884815035
H         0.16728919185430    3.61318331505648   -4.69653454431132

