43
CSD_code = BIWNOL | q = 0 | S = 0 | Stoichiometry = C16H21AgClN3O | MND = 2
Ag        6.76831168347492   -0.27173500823634    0.81533509064869
Cl        6.21604458282650   -0.32099685101895   -1.36844116159628
O         3.80755826370747   -1.64316018035403    4.05884583274605
N         6.71386150077590   -1.38910486444515    3.72087057322966
N         7.76938376747264    0.47109144831499    3.72915597014657
N         4.07265776400497   -1.88562661959825    1.81139112301345
H         4.72008895633011   -2.14329498027605    1.07677984692989
C         7.15010737208995   -0.40060056509454    2.91155315207860
C         7.04250923386567   -1.13236118410039    5.02083900819860
H         6.76521932115226   -1.78234691004741    5.82429238772240
C         7.72112403849427    0.03982984887759    5.02502674504031
H         8.16147267403710    0.58737049047357    5.83215707567573
C         5.90497790837943   -2.49442129546128    3.28100177267341
H         5.89919366933940   -3.26116351742455    4.05822213210136
H         6.31338799792602   -2.90484764350030    2.35381000802880
C         4.46041868844884   -1.96780306550509    3.08983193694019
C         2.83611846005731   -1.24966401043012    1.33658943815700
C         1.62832544561341   -1.89222849191858    2.02051766503359
H         1.59388589072381   -2.95719995874565    1.80206793169864
H         0.71338371822907   -1.43171470003035    1.65899181973934
H         1.68963521694380   -1.75828939822245    3.09619093230266
C         2.77547308318517   -1.47024008355556   -0.17183621385084
H         2.73675324024374   -2.53289800525414   -0.40236258769077
H         3.64762127119107   -1.03598853033965   -0.65785520733164
H         1.88682133969896   -0.99857545612892   -0.58138874480138
C         2.91350406938234    0.24488109575027    1.65389061827697
H         2.03815403491850    0.76057354160107    1.27024866456841
H         3.80509067138669    0.67220654572650    1.18801681793222
H         2.96895216152377    0.39518370322200    2.72898833430998
C         8.46540222499993    1.65824686442854    3.29121484247201
H         8.31489829974714    2.44929867089968    4.03009759190210
H         8.02794031066524    1.96788390256847    2.33475224000660
C         9.93565661156339    1.36385332146766    3.11567668069825
C        10.36789901486322    0.66700354384859    1.99478073005023
H         9.64581564458070    0.37600546640239    1.23649931761825
C        11.70467441815691    0.34927244236845    1.84151225974725
H        12.03205853667630   -0.19040988396383    0.96590911369354
C        12.62178167068000    0.72694682345402    2.80907697687822
H        13.66612198382475    0.48075840708904    2.68961893604192
C        12.19774288458840    1.42280099756116    3.92767593236341
H        12.90968510178421    1.72116603931239    4.68273890477401
C        10.85842246594038    1.73755106370069    4.08234672073000
H        10.53196480654690    2.28344698662964    4.95636879114095

