48
CSD_code = BIWPUV | q = 0 | S = 0 | Stoichiometry = C15H27Cl2FeN3 | MND = 5
Fe        2.95903912865566    5.64699848514554    3.66675518250211
Cl        2.20361788141439    5.29019153622133    5.65211863197452
N         2.95885698185687    7.46160862209695    3.66744450428630
N         5.05913096400968    6.02934137074613    4.39203283212598
C         5.33297907544923    7.25791413891860    3.63096998402926
H         5.48942049330956    6.97355094929592    2.58585623342097
H         6.22703671622219    7.78229546919403    3.98717217244553
C         4.12056795211815    8.14504285325526    3.67708564065649
C         5.94315234945589    4.93022577010081    3.99168414523601
H         6.97821093154667    5.11551394022084    4.30443201649060
H         5.91945723156774    4.87932156348446    2.90127114943377
C         5.10821829596942    6.30392238242800    5.83639337463543
H         4.65350743151912    5.46207173504676    6.35724204750550
H         4.46739545138676    7.17052258044496    6.01485982418758
C         5.44544455037543    3.59813262855231    4.53929212580588
H         5.99110754128782    2.78162536054506    4.07399858668068
H         4.38240547171350    3.48445081381156    4.29983862382402
H         5.56612534042034    3.52818148882091    5.61690242918349
C         4.15372196581314    9.52480074700909    3.68560483190182
H         5.10196464854201   10.03907750024776    3.69852806516155
C         6.49100605943899    6.56649550991690    6.43425815041047
H         7.02257887739827    7.35704518311087    5.90974973649019
H         7.10639484038276    5.67069262279215    6.43203311518037
H         6.36206676330186    6.87921008174970    7.46702812437282
C         2.95874265292156   10.23464058278889    3.66759165262785
H         2.95870393854603   11.31252060594296    3.66781109760498
N         0.85818362704809    6.02912120215998    2.94336200693045
C         0.58464998278162    7.25784820361034    3.70423386347175
H         0.42874929775985    6.97349047275573    4.74943339006948
H        -0.30962352941037    7.78210169473344    3.34838724286574
C         1.79705842262786    8.14496529997614    3.65766952581692
C        -0.02586928990344    4.93008524632009    3.34380717287781
H        -1.06090596690241    5.11539051366163    3.03099537465180
H        -0.00217226759565    4.87937954386845    4.43422263728470
C         0.80892815394336    6.30361218622621    1.49895311998875
H         1.26333426534327    5.46165966194602    0.97802959620240
H         1.44990947612458    7.17001868301746    1.32017404688507
C         0.47171840842046    3.59785145805754    2.79639356026398
H        -0.07445471675900    2.78154328412267    3.26144900010194
H         1.53460710970738    3.48378863495145    3.03625860021049
H         0.35150797682439    3.52789815814661    1.71872210148630
C         1.76381122915926    9.52472535417879    3.64937306591578
H         0.81552947984294   10.03894001240338    3.63663706682364
C        -0.57387539559479    6.56643427498530    0.90123855691713
H        -1.10506412840448    7.35703353452583    1.42597695494433
H        -1.18948415575692    5.67079371604716    0.90356561364301
H        -0.44521639522056    6.87922900143134   -0.13153210029715
Cl        3.71422488134113    5.28889534098250    1.68209532477380

