55
CSD_code = BIWTUZ | q = 0 | S = 0 | Stoichiometry = C20H27Cl2FeN5 | MND = 5
Fe        0.35097883716320    3.97261358797354    3.67509250535114
Cl       -1.45795397485273    2.92570558340548    4.05078569397578
N         1.89126024371909    4.99821560170364    3.57683665047567
C         3.12708998682666    2.97500085912195    4.10062435576841
H         4.14852507974141    2.62045246970832    4.25441045972821
N         2.36877115991297    2.77013436139292    5.31395492314390
Cl       -0.47464607163209    4.92043650980239    1.94708252809707
C         3.11423020967788    4.45572010739364    3.78192648832267
N         1.11772200367755    3.26282398777740    5.37620580160161
C         4.28240618928379    5.19131596299160    3.77154625530995
H         5.22782939610843    4.69810070793117    3.94363381058461
C         4.10137197295566    1.65146482833029    6.72758744971794
H         4.87680979334063    2.40355526376194    6.54397826387993
H         4.24877898548199    0.84028411051356    6.00651588695290
C         4.22665903908828    6.55724848703464    3.53485880939736
H         5.12375719147599    7.15347038978413    3.51109262755762
N         2.52470174336897    2.22131454660060    3.03115718196482
C         2.97095154792791    7.12544697559834    3.33462241788457
H         2.86663577277371    8.18279755429525    3.15223364518469
N         1.25301004316163    2.49998066940239    2.67898755664316
C         1.85113769656947    6.32860217844027    3.36471317486378
H         0.86801607781592    6.73876955329582    3.19019106260164
C         3.03486927211065    1.20492955684216    2.28789851838337
C         2.03292752144160    0.82949646799779    1.42613444087166
H         2.06543898052354    0.05674197765612    0.68697027005964
C         0.93123257378610    1.66100704792860    1.70320628109600
C         4.75245221800547   -0.42978422706506    1.49102167025056
H         4.65817444395040   -0.08272277131243    0.46585442945092
H         4.07808053453132   -1.26878574026509    1.63893841188392
H         5.77186481777918   -0.77380689211854    1.64717936399029
C        -0.38216073695034    1.64193692497710    1.00651456455556
H        -1.11889405371774    2.16433497148484    1.61423560096146
H        -0.69692712437199    0.60304336275269    0.88498662875877
C         4.42556735883032    0.69570013267571    2.46591327287292
H         4.55144844533934    0.33026141129753    3.49113647413445
H         5.13315880048712    1.51845050672709    2.31746874165213
C        -0.28297735013967    2.31796068511172   -0.36228175452928
H        -1.23199976432736    2.22987402154783   -0.88358166200962
H         0.49577536305494    1.85906390644187   -0.96896646316787
H        -0.05966526255185    3.37291021803169   -0.23087080519458
C        -0.65454486353217    3.53726404887915    7.06506091815028
H        -1.39333395271002    2.77842781206267    6.79738144270589
H        -0.91230491766939    4.43393890098790    6.49288177846460
C         0.68689348590522    3.07497333015172    6.61590579536110
C         1.69367233567774    2.44098678904679    7.36468831647194
H         1.63921192768811    2.15588702648065    8.39355834832011
C         2.75813346384810    2.26144846774812    6.51066201270806
C        -0.71365004871694    3.82233286548094    8.56124521855061
H         0.05176510656062    4.54037448532904    8.84927929092828
H        -0.56855095052360    2.91069859022872    9.13539979743087
H        -1.68605330982310    4.23331812113075    8.81893367591198
C         4.26107218010105    1.10081583189501    8.14006580702079
H         5.24651899836679    0.65711872281050    8.25768862187150
H         3.51292820366406    0.33776208043475    8.33686370921236
H         4.15113337979368    1.89518707035836    8.87328973387013

