52
CSD_code = BIXBUG | q = 0 | S = 0 | Stoichiometry = C24H18CoN7O2 | MND = 6
Co        1.80400387028607    5.18766425745349    2.85555229123967
O         1.20754086396685    3.69823184711333    1.75073151284370
O         2.40692152928945    6.35147881045951    1.41469384736559
N         1.30099342109188    4.42039096664229    5.51257902927520
N         1.24504773743255    4.12798623482328    4.26989285687133
N         2.29246994661490    6.59921384576107    5.23666384821991
N         2.35442770735613    6.57004128768446    3.96063352599150
N         1.79109996985719    5.90772950075639    8.48826347779367
N         3.55958475215689    4.39718677950580    2.89260352568671
N         0.04828388456704    5.95957458383725    2.68217855247648
C         1.79591720987406    5.58262527380319    5.94705711562625
C         1.79306749984046    5.76166928604921    7.34981746156908
C         0.72209442317842    2.91677852739802    3.88827245847370
C         0.73030732736310    2.74122385978632    2.47828433724197
C         0.21806056033030    1.53759863093736    1.96466435485040
H         0.21662047482686    1.38771564402038    0.89586623354110
C        -0.26917999512698    0.57868283843349    2.82306518079117
H        -0.66135526641758   -0.34331148926617    2.41822447015252
C        -0.26891403383759    0.76934340312539    4.20581294451391
H        -0.65820532072625   -0.00162771838853    4.85299545128760
C         0.22508746340696    1.93533695755806    4.74542072481203
H         0.23773783374963    2.11005045516411    5.81041718208744
C         2.87468192287994    7.64907068926876    3.28900406408473
C         2.87459304412085    7.46392491005649    1.88019029769634
C         3.38351937467002    8.50315004380562    1.08266788131575
H         3.39083068634677    8.37939683290017    0.01055295262179
C         3.86000738785432    9.65056985476580    1.67442458095019
H         4.24937808039135   10.44384178553608    1.05241281870539
C         3.85206979484102    9.81402445089340    3.06064241060132
H         4.23287291911422   10.72576715881057    3.49482180862084
C         3.36101743783683    8.81796124219149    3.87394199786139
H         3.34238198277493    8.91685912577389    4.94854823114238
C         4.30755821933203    4.19278020104022    3.97848970850234
H         3.90418650182818    4.49383780624513    4.93525735686757
C         5.56415372990722    3.61748820455666    3.92835696552760
H         6.12196177249164    3.47766328624970    4.84046525924671
C         6.07989584909781    3.23231098178089    2.70172185524320
H         7.05744045192484    2.78068862223852    2.62872575900587
C         5.30379361943445    3.44422069267282    1.57410641713353
H         5.65570680838433    3.16379349764939    0.59416258816278
C         4.05659785246734    4.02579203701580    1.71115329216599
H         3.42463971053743    4.20599828372690    0.85441391173696
C        -0.70478159448372    6.43231758658693    3.67704437662618
H        -0.30413336075666    6.38868576027521    4.68020454332998
C        -1.96333734110835    6.96954430648642    3.47728545086201
H        -2.52536742795225    7.33605437981262    4.32133407343886
C        -2.47566822392497    7.02436230430900    2.19140726411188
H        -3.45497359942516    7.43669267523341    2.00213880461760
C        -1.69377649790834    6.53487956856203    1.15806826107474
H        -2.04262416883255    6.55314759529482    0.13790788918678
C        -0.44475804007010    6.01426838258083    1.44335400600762
H         0.19182124914590    5.62422395102182    0.66330479084075

