75
CSD_code = BIXCIX | q = 0 | S = 0 | Stoichiometry = C31H29N11S3Zn | MND = 5
C         6.74185299927819    1.63702906785544   16.30369470070855
H         5.69201734780768    1.47212641530648   16.10877799693096
C         7.37699371152124    0.98624485758471   17.34401404364398
H         6.81528155192201    0.30754528555629   17.96492690718689
C         8.73685565177820    1.21757273110285   17.56622700190897
C         9.37337935004621    2.11390623212445   16.70058447816029
H        10.42182366217156    2.32868984866065   16.83125551388977
C         8.64904354951979    2.71673388883054   15.69354270168198
H         9.11464454996968    3.41554037545170   15.01379300268542
C         9.47777902683040    0.55452777963479   18.63178684557958
C         8.75121125156135   -0.27807306277830   19.65242776821913
H         7.95058913631262    0.29901795479704   20.11145113493426
H         8.31716448588472   -1.16248364988360   19.18667590203206
H         9.44467154920016   -0.59676499506775   20.42870583389894
C        12.47718709688214   -0.56310867029254   19.53144214122333
C        12.43034919029823   -1.72735485048596   18.57964244953026
H        12.19806260122107   -2.64849918630017   19.11353023552103
H        11.66365716534698   -1.55635756509847   17.82612072407273
H        13.39044668712282   -1.84925257844566   18.08137827826022
C        13.50859850819103   -0.49907747241414   20.56177785244348
C        13.63175991141148    0.63011408945686   21.37875101325488
H        12.96347490036772    1.46519118671205   21.24159545409361
C        14.61727345285761    0.65328940429281   22.34686198758315
H        14.74115522633341    1.51159634775186   22.99466645172123
C        15.35233054678678   -1.41224259395313   21.78551489680965
H        16.06208812046523   -2.20515094600649   21.98416841769635
C        14.40482756071899   -1.54679845603907   20.78475515067264
H        14.36962586946168   -2.45102973676246   20.19894762624796
C         3.53703913337750    3.97202003136343   12.46340075466414
H         3.14159311079538    4.25212202047380   13.42926410783588
C         2.75806348778231    3.29474467416364   11.54691076852102
H         1.74272643960138    3.01784620349605   11.78419485115798
C         3.32232718373368    2.90879529591816   10.32787990007752
C         4.62320260408650    3.33702531941727   10.06416310841968
H         5.11541115080801    3.10780439449707    9.13341402255300
C         5.31579220874123    4.01384395935525   11.05208814165279
H         6.33704980291318    4.32748026541977   10.88955208625838
C         2.59990808409721    2.01573184451288    9.42668366916950
C         3.23692958797388    1.55220880401771    8.14870226875523
H         3.53421992092961    2.40336415327803    7.53960646522862
H         4.12194836778373    0.96285584765049    8.38579886064325
H         2.54109354904586    0.93377596357169    7.58525685971274
C         0.19913145523277   -0.32556440181006    9.59638041998417
C         1.12377313096546   -1.25846599268733   10.32445101802572
H         0.63309432478708   -1.68236809297692   11.19892047457317
H         1.44125591381334   -2.07333047609323    9.67489596792482
H         2.01130649140342   -0.72468283464315   10.65696093156538
C        -1.06419727331319   -0.76546840469811    9.11992371084689
C        -1.96549492089408    0.12861026965781    8.47276083420383
H        -1.67201983867070    1.15812149477478    8.35427818248153
C        -3.16861437487519   -0.30025884173529    8.02160824771960
H        -3.87439610423930    0.35201658336015    7.53290677262276
C        -2.71726280456401   -2.49438375230757    8.77992983928440
H        -3.07876478939200   -3.50672643390850    8.86467853973414
C        -1.50279679482719   -2.11204041611530    9.25027950005261
H        -0.86959787402489   -2.84111261934856    9.72601364351883
C         4.25191940694307    4.44303431722884   16.11834732588728
C         8.35327989637871    5.00960077916179   12.54814031974185
C         5.17565101478869    1.00012776229729   12.46380446708265
N         7.35604050187467    2.48698692927051   15.49106009299247
N        10.74679344564738    0.70115727569867   18.63474159875290
N        11.62920669158394    0.38962398724087   19.49050316099677
N        15.46505190168566   -0.34277420948740   22.55386699827989
N         4.80917445689998    4.28474708729935   12.24680613999582
N         1.47244692295640    1.57947090805131    9.80827291533721
N         0.51086651165719    0.91675220164675    9.35164817391215
N        -3.54610970652270   -1.60188662585793    8.17190550773399
N         7.61707663969931    4.40450637414360   13.23164051406965
N         4.99077222778964    4.14230321283839   15.26003589421387
N         5.66265647286265    1.77615911623346   13.19343645465487
S         3.23790099039561    4.82823357577293   17.27414775307093
S         9.37365756286791    5.81039432314439   11.63796324319218
S         4.51388895407806   -0.05673806725176   11.48467094136582
Zn        6.18005164835839    3.44503785919875   13.97368787734954
H        -4.44749137419552   -1.90473336614785    7.83390016360015

