59
CSD_code = BIXDES | q = 0 | S = 0 | Stoichiometry = C28H22FeN2O6 | MND = 6
Fe        2.94895402802059    3.89267075409842    5.08180143859186
N         2.25116367906316    3.71975826210351    6.87137897167356
C         1.34094598281331    4.47494013876232    7.49492679229613
C         1.31848572946745    4.59771752340755    8.87830301188212
H         0.57523712628781    5.22759647925866    9.34137001591559
C         2.24800355921287    3.91892797873656    9.65084826552471
H         2.26006970596000    4.02752730317875   10.72415874815692
C         3.14098439093625    3.08222554457155    9.01203008120679
H         3.86348253624150    2.51697472162143    9.57651963931259
C         3.10883394087099    2.99136957340520    7.62355069105597
C         3.92705771507614    2.07695171118917    6.84743902820521
C         4.71505408065670    1.06028456223284    7.38070807394231
H         4.82956605556847    0.95831707998672    8.44678267424930
C         5.33878119878932    0.17868289995085    6.51879972036125
H         5.96834254713402   -0.61103495073743    6.89872457776149
C         5.10957756930304    0.30721551381883    5.15721643184456
H         5.53968014861095   -0.39374974340533    4.45927614581196
C         4.31947812236174    1.34706698164901    4.68191416582443
N         3.78629480750604    2.24432927644003    5.51663707174534
C         0.31290189449647    5.17680999914276    6.67162936684485
H         0.72875658914545    6.09891604656912    6.27011433299693
H        -0.55894843768808    5.42068584087580    7.27321563170380
H         0.01652798542261    4.54527386418196    5.83793022567249
C         4.01510829536915    1.47600687459231    3.23010257319192
H         2.97880103411883    1.78203983968785    3.11314062997640
H         4.19144007142291    0.53661545023839    2.71404147779078
H         4.63550344967728    2.24750650026311    2.77855912271236
O         1.43377475987745    3.15513484716059    4.03635785515669
C         0.82087438814955    3.97477521679907    3.27778567641760
O        -0.08445513753734    3.71396123528818    2.50418303946904
O         2.11959222665389    5.55105868500205    4.45473446870052
C         1.36179946333396    5.41126885594984    3.47142090961114
C         1.14226848850225    6.50537743059555    2.53523445015755
C         0.17555400629750    6.43867796313262    1.52664057106634
H        -0.46636947376773    5.57395961546362    1.47476231295973
C         0.06664398466578    7.46825363219230    0.61180623030146
H        -0.67982550605823    7.41493015818958   -0.16667860601755
C         0.91071260228022    8.56647648719309    0.68421115643044
H         0.82286384743885    9.36432063836921   -0.03869264811050
C         1.87094502235031    8.64187082838369    1.68344027715637
H         2.53178154775143    9.49440577802648    1.73758317718845
C         1.98579943858575    7.62385279560565    2.60555336701335
H         2.73407454551112    7.66373007261439    3.38378044187116
O         4.46370711309939    4.85668931917959    5.90780710660668
C         5.24425200715243    5.49541314415211    5.13529802025008
O         6.19444484670536    6.18626845824273    5.45764127993067
O         4.01797121456131    4.34783136053045    3.48517723052311
C         4.86340533326798    5.24868717683393    3.65497950108694
C         5.35660077244835    6.03643862892706    2.53475128918977
C         6.45295894180597    6.89667937386789    2.65386252944313
H         6.99030309084740    6.93201795645207    3.58791865181307
C         6.82084350004987    7.69037982838648    1.58457789264672
H         7.66771011465178    8.35383147220998    1.67786019061865
C         6.10879263968933    7.64321764097065    0.39514795477429
H         6.39973825913306    8.27154056468419   -0.43392612382351
C         5.02040057052016    6.79153760606813    0.26833180969608
H         4.46202351749644    6.75860090709959   -0.65548187262530
C         4.64707158045179    5.98954664468185    1.32547652049586
H         3.79585848824290    5.32913965194614    1.24523643375309

