71
CSD_code = BIXFOG | q = 0 | S = 0 | Stoichiometry = C36H27Cl2FeN5 | MND = 4
Fe       -1.28737865108251   10.77210503425270    3.07463408625426
C         0.61143432463742   10.80819734089618    6.27475621046806
H         0.99998353397040   10.76597516264959    7.30146812272450
N        -0.42843475420878   11.80998653109717    6.27961228156054
Cl       -3.14295929694200   10.17184307375600    3.57729169354917
C        -2.06511101617272   12.96070008349559    5.53297777462763
N        -1.12572408593888   12.08871869494986    5.18017556983223
Cl        0.44624109346032   11.39737539601437    2.25771635915643
C        -1.96783250408250   13.23372155795934    6.91036861801750
H        -2.56140817402633   13.91360739350884    7.48583885826860
N         0.06236576685578    9.51319348759912    5.97475618975128
C        -0.89982578037579   12.48533347740367    7.35897443903101
N        -0.30959884881241    9.17298277603917    4.73758357001762
C        -0.87346135985619    7.97083128823851    4.82208255237712
C        -0.88884689955046    7.54673739577488    6.16629979417919
H        -1.25722917838429    6.62240787016594    6.56015277712565
C         1.73426377998902   11.22259957740098    5.33967390888157
C         2.44173983150868   10.32055524948556    4.55881985829457
H         2.20186971186866    9.26985512751130    4.56346250522116
C         3.45144649431932   10.81424598630604    3.74789653616445
H         4.01193875622812   10.14570053197736    3.11191805791854
C         3.71845777289925   12.17255020958119    3.75661916969152
H         4.48424803487408   12.59544551231607    3.12628600054300
C         2.97001337654390   12.98043247697500    4.59830375605732
H         3.14089190689258   14.04707978231296    4.65770267109930
C        -3.01563813812713   13.49447112873241    4.56749911793674
C        -4.28071894311689   13.91161335221695    4.97417364781202
H        -4.56026768536060   13.83554798458376    6.01434617131732
C        -5.18645033886235   14.39640580855219    4.04945779355039
H        -6.16800734507219   14.71081655333540    4.37341026521335
C        -4.84246309109845   14.47281473058610    2.71024784873110
H        -5.55413578806179   14.84754915611942    1.98942019207278
C        -3.58332679070668   14.06715124765050    2.29784307376723
H        -3.30943460812970   14.13220469451824    1.25518521924024
C        -2.67283939478502   13.58320300467434    3.21810180033439
H        -1.67275078572017   13.30206893182748    2.90373029839441
C        -0.29714084478547   12.41204699770454    8.68558813126329
C         1.07165779729253   12.62087590771519    8.85097467402146
H         1.68050192738687   12.85910581933725    7.98975535108128
C         1.63294649702184   12.56252653913759   10.11318435572244
H         2.69319818332989   12.72825430653031   10.23530990228633
C         0.83974192228181   12.30328722150334   11.21839002081489
H         1.28160517000161   12.26025260099595   12.20263755897819
C        -1.09047572715906   12.16421622839663    9.80180285994588
H        -2.15091360877424   12.00736238383955    9.67276372133157
C        -0.52225595586363   12.10975988031124   11.06057163492329
H        -1.14401985814823   11.91592743143591   11.92177789955699
C        -0.04321411837801    8.67358646997652    8.31725555374599
C        -1.11206438304514    8.54397129342724    9.19972296427211
H        -2.10143395072965    8.36641703793486    8.80530999190169
C        -0.90849767419021    8.65346543968076   10.56227299652222
H        -1.74420518578325    8.55443429351216   11.23870256093682
C         0.36192504278909    8.89093093842992   11.05915205650772
H         0.51968651529182    8.97781595300755   12.12336874101952
C         1.43201708977967    9.00801791596705   10.18887734216656
H         2.42602501810792    9.18117282164903   10.57314399617589
C         1.23483072341808    8.89815144488989    8.82472835209936
H         2.07961084128608    8.95742862349220    8.15209054369241
C        -1.36736608566341    7.27738206959898    3.64124709025470
C        -0.97289899408348    7.69333288932136    2.36811126789086
H        -0.26918406455842    8.51340361701174    2.27044075008175
C        -1.45339597372320    7.05097679320339    1.24358863455842
H        -1.14324091374910    7.38200288652407    0.26348878535806
C        -2.32879428707078    5.98390892933213    1.37023173037675
H        -2.70625201838158    5.48485436651338    0.48996109662773
C        -2.72089008139289    5.56221693602969    2.62933994591044
H        -3.40621157963822    4.73342023698349    2.73184517636015
C        -2.24497385209414    6.20204903587596    3.75847133730527
H        -2.57047680448752    5.87780961841564    4.73504967864489
C        -0.28625351134538    8.55829440220805    6.88098340722290
N         2.01006181946971   12.51901305969186    5.37757310129255

