31
CSD_code = BIXGEW | q = -1 | S = 0 | Stoichiometry = C8H16Cl4O2V(1-) | MND = 6
V         0.45576106502491    7.69993956749289    7.28229819834610
Cl        1.16185776220596    9.63314439887822    8.35787335925907
Cl       -0.25051311838249    5.77064789280059    6.20674270813351
Cl       -0.39114473570070    8.88300926953571    5.50609964356952
Cl        1.30346168135712    6.51770597816613    9.06064673657443
O         2.13999795137087    7.57563033500996    6.39871894299711
O        -1.22946237662526    7.82622094170426    8.16525066631412
C        -3.00442462878363    8.75192397441976    9.38355068845362
H        -2.52899069476821    8.94792716322023   10.34652131794503
H        -3.90248843716089    9.36119365196969    9.29588919868611
C        -3.26638707921678    7.25642516525032    9.21811825968736
H        -3.63154802777166    6.77998964673306   10.12657343219647
H        -3.98597109346438    7.08742338212101    8.41451778840475
C         2.79205422383172    8.65649946268130    5.74456967952683
H         2.74540051770869    9.52604862331123    6.41086971859006
H         2.22915674528016    8.88192064073841    4.82631405257955
C        -2.01427106484127    9.00547425574388    8.25349317885446
H        -2.52229271937579    9.15603390403468    7.28832548235377
H        -1.33116354506377    9.84313970274023    8.43264790721259
C        -1.88688767879743    6.74354957647754    8.81311190908352
H        -1.27595219705162    6.46067422986716    9.68295269688691
H        -1.91464763016842    5.89945195858045    8.11297485637996
C         2.92364120409963    6.39412944630003    6.30706216674809
H         2.24928146813467    5.56754271477322    6.05473985752060
H         3.36723641788313    6.20338958269370    7.29621879875500
C         4.20844334735526    8.17664740027213    5.44569563092119
H         4.85616388671225    8.35210989554544    6.30693122155485
H         4.63566921541962    8.66741115794822    4.57268716450748
C         3.98554515824829    6.67852415514861    5.25083871064937
H         3.58580491003351    6.48356334842993    4.25378065472671
H         4.88596947250687    6.08420857741111    5.39748537258175

