93
CSD_code = BIXJUO | q = 1 | S = 0 | Stoichiometry = C43H44NO2P2Pd(1+) | MND = 4
Pd       -1.11952107969879    9.39959494180482   16.69091608773927
N        -0.02914278052045   11.06298043756619   15.96387721967836
P        -2.17675120418751    8.65829032161787   14.72416603737024
P        -2.05912802990762    7.61080386281110   17.63949909386188
C        -0.24181311663009    9.93620834298614   18.40510250278298
C        -0.64453521358962    9.76794705717034   19.73984074034296
H        -1.59179306063997    9.29097446751749   19.97230010757454
C         0.15617835813064   10.21011097717453   20.75696606592455
H        -0.15385323083733   10.08895214591743   21.78476749339502
C         1.40075520566804   10.81616803460953   20.49396302952720
C         2.24039360930759   11.24348483909409   21.54405956521710
H         1.90548832852859   11.09980432871495   22.56083984970726
C         3.44953291431730   11.82224532322997   21.28390658446604
H         4.08732870050196   12.14747359453556   22.09132900383073
C         3.87199013701341   11.99338830994918   19.95750648446974
H         4.83327675443801   12.44424257283272   19.76174780858096
C         3.08146918485707   11.59340368686903   18.91648518352058
H         3.43802273196432   11.72634514664775   17.90638650262317
C         1.82094421488181   10.99962986092430   19.14752182803546
C         0.95170707639832   10.56077028316114   18.11492182828560
C         1.25379807811161   10.73922994523035   16.64083161729500
H         1.95901953708577   11.56603675210348   16.46731982551936
C         1.87137654219510    9.43861527730890   16.10481283927480
H         1.10434938599431    8.64192315131894   16.06477783891694
H         2.66047420822468    9.12333984884712   16.78554707687648
H         2.31036414892509    9.56832797253016   15.11777105600754
C        -0.51769328893868   12.36119422770111   16.44550844313070
H         0.21515493733501   13.14981658337595   16.23306655341342
H        -0.69143877203453   12.33624243278130   17.52257855549617
H        -1.44812081053221   12.61943727884741   15.93793367625294
C         0.15070703337063   11.16823855301950   14.51454808362484
H        -0.79427709514644   11.45649300187812   14.04843147027622
H         0.46148263694898   10.21577117857607   14.08536694646865
H         0.90283759689386   11.92881174870849   14.27057872972122
C        -3.68217633918860    9.63011422280284   14.44809219417087
C        -3.84020584362053   10.74980732486193   15.26246493886932
H        -3.06317375015437   10.99216549992552   15.99278307853612
C        -4.97347041415698   11.53457913265310   15.15607571324585
H        -5.09568279375768   12.40132419916542   15.78832151671003
C        -5.95297525340177   11.20199184515793   14.23418480981296
H        -6.83781817600952   11.81346651327594   14.14567533041621
C        -5.80390959517483   10.08210940777608   13.42980586889169
H        -6.57403763302973    9.82350329327568   12.71911667053155
C        -4.67540224770822    9.28874520431709   13.53317894729798
H        -4.56449019256646    8.40593774705192   12.92047741029785
C        -1.37298090908656    8.41307290163763   13.11441431920858
C        -1.77067857477305    9.03660024714974   11.93960839494525
H        -2.64377782441115    9.67195513481807   11.93049075929294
C        -1.04543855027727    8.83042121998701   10.77833769496227
H        -1.36218765940547    9.30231956062671    9.86088188856106
C         0.08112703351795    8.02499373928434   10.78894796197253
H         0.64113884891510    7.86830502471442    9.88003862718508
C         0.49623035160880    7.42288004968986   11.96760237525345
H         1.38079475487603    6.80370811379158   11.97731333070752
C        -0.22511032985956    7.62074303190438   13.12834920275689
H         0.09282686053988    7.15943646818495   14.05877624551566
C        -2.90616248459449    6.95110229549891   15.10780414235396
H        -3.95730825262686    7.15772789588420   15.35415353928933
C        -2.91611666839869    6.08119069570735   13.86736941584068
C        -2.25467868889445    4.01316512595798   12.94453743071279
H        -2.07517112973251    3.04366406382219   13.41245906942988
H        -3.24429189331108    4.02791372763495   12.47851392227828
C        -1.18397502117695    4.33538549390345   11.91581561886515
H        -1.38356374615582    5.29928827991982   11.45379914762296
H        -1.18812250410563    3.57011506769428   11.14569005851983
H        -0.20284640897779    4.36001266592738   12.38343350520319
C        -2.21108053254074    6.33447683658216   16.31687655897239
H        -1.19473290655894    6.01198625281252   16.06056706698335
H        -2.75045107983294    5.45672702978240   16.68564471237445
C        -1.23785313246904    6.70840043477651   18.97565185227519
C        -1.90682840911410    6.13346256442516   20.04810398857443
H        -2.98172935683661    6.21355562810861   20.12578415541102
C        -1.18109185134623    5.47241674251799   21.02438287845613
H        -1.69471082658256    5.02500261001478   21.86168263495626
C         0.19886002938601    5.39090836432629   20.93428781287203
H         0.75747157715590    4.87889921491263   21.70253336102735
C         0.86737005457078    5.97475435500736   19.86831597022736
H         1.94359445609481    5.91931408963748   19.80838763729911
C         0.15058529534553    6.63683798535538   18.89164943442763
H         0.65529025064064    7.12569436662831   18.06214318941090
C        -3.76199031534817    7.99545980338310   18.11396458140095
C        -4.76323996506053    7.03918124185461   18.25531683198776
H        -4.54248605610449    5.99033507424669   18.11287580666520
C        -6.04856448475126    7.43765686962760   18.57715299602368
H        -6.82671841127669    6.69777211733126   18.68801007536537
C        -6.33966424350415    8.78124388183866   18.75507254723407
H        -7.34532514081843    9.08326000038242   19.00354051780575
C        -5.34478912723278    9.73622145597491   18.61534872400356
H        -5.57500386995938   10.78115488535427   18.75663301576745
C        -4.05812351976579    9.34554720837829   18.29484448127212
H        -3.25773981687534   10.08307549604038   18.18973898914319
O        -2.24928858906072    4.94771188746548   14.03548206802897
O        -3.48930863143202    6.39950192186263   12.85731925357232

