60
CSD_code = BIXJIC | q = 0 | S = 0 | Stoichiometry = C28H26Cl2OP2Pd | MND = 4
Pd        7.56226506077375    4.98347330387338    4.29045827251943
Cl        9.27040658660733    6.45177698900483    4.11783804661662
Cl        8.08001842063298    3.97820575796072    2.34113334890205
O         3.26161543059277    2.87229072213017    7.06306656715379
P         7.08200213833525    5.43640367007530    6.47136842479442
P         5.63599156689652    3.87243910458406    4.68790299961340
C         6.78687740283342    6.86242995161812    7.55013883292902
C         5.76804807355862    6.94915939916590    8.49133738329657
H         5.06439469452140    6.13789826532456    8.61748909521676
C         5.65857052240274    8.08660419069102    9.27217892818914
H         4.87001394465523    8.15739692379058   10.00724415095782
C         6.55494346976978    9.13130241283623    9.11396933161644
H         6.46124279529336   10.01499606114300    9.72746338589805
C         7.56480231294509    9.04902484980270    8.16722619738473
H         8.25646400183557    9.86806434592522    8.04032660986132
C         7.68040849442835    7.91854727787492    7.38107822439733
H         8.45064939001910    7.83530547388430    6.62346802820986
C         8.32830906294040    4.47589686010971    7.39615799410757
C         8.40916664191894    4.50935765563518    8.78562320771612
H         7.73949173575453    5.14488963089139    9.34905815381264
C         9.35947141001606    3.74676412712039    9.44014855619593
H         9.42342959706797    3.77866860102517   10.51792954321918
C        10.23270764287301    2.95044931133392    8.71642063555598
H        10.97585513468163    2.36071807130044    9.23190118063649
C        10.16503634653986    2.92323154490715    7.33240084373109
H        10.85785261113063    2.31657759261532    6.76875135648289
C         9.21953246168255    3.68550383073344    6.66939931485432
H         9.19229512802339    3.69207789099302    5.56829397523941
C         5.56379507206074    4.32880177668697    6.51931274577332
H         4.66181460913409    4.92973920073234    6.69038542434837
C         5.59548299887793    3.15466548031573    7.48818548709015
H         6.42311567452063    2.47673012381401    7.26663810800463
H         5.73958344862496    3.51669479955838    8.51251206472636
C         4.28665312840656    2.38509080974719    7.46787396614532
C         4.37682296271828    0.98291787119917    7.99954235297789
H         3.38604579401852    0.60533182261934    8.23764566995855
H         5.01996868668955    0.93786200308572    8.87426512250508
H         4.81049006683491    0.35229435139786    7.22374028068755
C         4.29997189288200    4.88005225986197    3.99113245439316
C         2.98006356539585    4.82999415798542    4.43411210475407
H         2.69936297106826    4.15669242262247    5.23176634872440
C         2.03813774950157    5.66525807783836    3.86066900972385
H         1.01272175391324    5.62584070486773    4.19805399526728
C         2.40550218642873    6.55425238622012    2.86216361472347
H         1.66273661298649    7.20141620660102    2.41957451655094
C         3.72318366076368    6.62391291173761    2.43868298972207
H         4.00948529540137    7.32774175163085    1.67172944121029
C         4.67363385314167    5.79063941343338    3.00139773727008
H         5.71898036296077    5.83924154282310    2.67012119755783
C         5.22376545588594    2.11078905967348    4.56066357026665
C         3.98405781899833    1.60034030700137    4.19823687093803
H         3.16776233090066    2.26706755399796    3.96763467634565
C         3.80733293999040    0.22946616718410    4.12864944847376
H         2.84410646063306   -0.17131759517452    3.85033307318895
C         4.85893667116100   -0.62919412791541    4.40601412186997
H         4.71140828539620   -1.69741402107149    4.34852164647139
C         6.10738675192515   -0.12041114996942    4.73288118121611
H         6.93428278900103   -0.78957531001154    4.91992971617086
C         6.29223865548541    1.24700917337470    4.79998768567267
H         7.27220741558694    1.66631605189695    5.01007078818398

