20
CSD_code = BIXKUO | q = -1 | S = 0 | Stoichiometry = C7H5OS6W(1-) | MND = 7
W         4.97114504195288    9.27213790319773   11.80002949172953
S         3.04961836621208    9.32812136802701    9.93403685808262
S         3.23541722052480   11.04036306733474   12.25865751883039
S         3.33506831911479    7.76166227151674   12.79642506797972
S         4.93193733593786    6.87324435928579   11.88618863320551
S         6.68958040604111    9.05289872372661   10.13791124680271
S         5.88894374305960   10.92683721572852   10.25935457796006
O         5.85273003512643    9.66122920546629   13.17027511356978
C         2.39074281239188   10.59365092840834   10.84239301524259
C         1.17526334483754   11.26823046110651   10.43935532279963
C         0.63649079917055   12.29271347920677   11.22449195098778
C        -0.52040402850123   12.93522323724202   10.83525253483634
C        -1.16168761904749   12.57242910945516    9.66019072557590
C        -0.63629677694551   11.55760346976067    8.87492347541896
C         0.51982701724939   10.90904636342162    9.25706014750340
H         1.14335686545634   12.56677594024019   12.13639575339004
H        -0.92746361355767   13.72531781148507   11.45005604741876
H        -2.06725941546759   13.07898631780628    9.35769439920524
H        -1.13306630372249   11.27175604058859    7.95875912952865
H         0.93505645016694   10.11877272699609    8.65104898993243

