59
CSD_code = BIXROS | q = 1 | S = 0 | Stoichiometry = C16H38NNiOP2(1+) | MND = 4
Ni       14.84324604490584    0.81494516388281    9.48455519202805
P        14.93690140055792   -1.16788733628972   10.39356673221921
P        14.67038410471640    2.84115280151907    8.71817231078213
O        15.68442644591359    0.37213133118870    7.94917240986625
H        15.60416407336329   -0.55154673100002    7.68720539116016
N        13.92399974319707    1.44827949733580   11.13174787915863
C        14.00781432222998   -2.59198378837831    9.64709347466412
H        14.59547141291239   -2.89748057159392    8.77276404962554
C        14.07411069292748    2.88872261428876   11.39890822377684
H        15.09827931129101    3.05369494285470   11.74365960626687
H        13.39380003382970    3.20169556816960   12.20293871273705
C        16.60175473845201   -1.82718468409186   10.87500304299995
H        16.46396880705385   -2.65941282899550   11.57426482491517
C        13.85495885260583   -3.78379375663885   10.58425775696626
H        14.82171638064362   -4.18335841655887   10.87952602179791
H        13.30867600957557   -4.57533975537571   10.07546647435112
H        13.29881809559390   -3.51752100179196   11.47998983558946
C        16.22422246823389    3.80114517312195    8.42712884514881
H        15.98424887847224    4.87075041159535    8.41643469988472
C        14.19028062284605    0.64039064971935   12.33220087756553
H        13.49536335483111    0.90968075169332   13.13954176407467
H        15.20217238222838    0.87822141441479   12.66958087935944
C        14.07712463700288   -0.84853161888515   12.01273633701143
H        13.02536750951995   -1.12078837606347   11.89599942328323
H        14.50064574808440   -1.45162890768606   12.81683102336045
C        13.81097305309400    3.69901027651666   10.13224416545897
H        14.15788955578622    4.72568796823489   10.24983736126374
H        12.73963830033187    3.72061552836851    9.92128835722088
C        12.65924923293945   -2.07418992990805    9.14677218018200
H        11.98209029634505   -1.86768284993180    9.97348843424390
H        12.18301506101704   -2.81176720379507    8.50558534142652
H        12.79821840395031   -1.15703831496893    8.56711811201540
C        13.58520267575788    3.10232359410600    7.24391215933174
H        14.16342705702048    2.70257812927453    6.40377602588974
C        17.37515414956369   -0.69743853554135   11.55297643809815
H        17.32148017857146    0.20514262978958   10.93671926862441
H        18.42237620014751   -0.96983146742216   11.66127950559701
H        16.98396531726381   -0.48029686701432   12.54450070099252
C        12.33660125901917    2.23742762979654    7.40694914820562
H        12.62903614637673    1.22072702232453    7.68612256451176
H        11.78343201535540    2.18749177575951    6.47246128738514
H        11.66859872577198    2.63720936605488    8.16814669671380
C        17.34753426693694   -2.30128772625303    9.63040640892357
H        16.83580952522402   -3.12823986230278    9.14324555371563
H        18.34380430114849   -2.64176973962869    9.90366464555106
H        17.45231856098647   -1.47919632880312    8.92330332564154
C        16.83728851974037    3.37171373244377    7.09751441841477
H        16.89910822896064    2.28540861606162    7.05944895398642
H        17.83951608404368    3.78250315668556    6.99993563595343
H        16.24822385142957    3.72182105995456    6.25393534827520
C        13.24990594635212    4.56702566551283    6.99275144645914
H        12.69037342581965    4.99450940257503    7.82196497564778
H        12.63690846758018    4.65080064120547    6.09775990082703
H        14.14867603602690    5.15873004856115    6.83920980169448
C        17.17556388274157    3.49052945471908    9.58105210280427
H        16.81902211499596    3.90967955950492   10.52010911681361
H        18.16140069638520    3.90444022632208    9.38315191904884
H        17.27323976025308    2.40602655130926    9.68152952872855
H        12.94664263207595    1.28828424405224   10.86419338175926

