69
CSD_code = BIXREI | q = 1 | S = 0 | Stoichiometry = C19H45NNiP3(1+) | MND = 4
Ni        3.13666839439788    8.10095110067476    8.95863385123691
P         5.04214808629774    6.93906728233429    9.14707858140264
P         1.62871532222653    9.67669090112304    8.62614435075429
P         1.79569251245386    6.47159656638230    9.77939863280030
N         4.40266985005043    9.45541309027405    8.32677009240023
C         5.28840984930449    5.19462262340547    8.53288850490580
H         4.52128128271218    4.58835875242558    9.02958619718630
C         0.10103559537239    6.76961985655049   10.42240650959701
H         0.13799810419664    7.40802494584014   11.30170924358812
H        -0.34623433340948    5.81541946119284   10.69731369545516
H        -0.51863442654020    7.24286357302402    9.66582679452991
C         2.38943374307636    5.37379684788947   11.12692899345936
H         3.32819745794058    4.89891162960657   10.85587385435446
H         1.64405504749962    4.60325311870307   11.31711444368238
H         2.53829287851466    5.95400311811725   12.03522453141532
C         5.56002858208855    7.01369828836950   10.93948200611154
H         5.16828537855481    6.10401999711934   11.40799001521640
C         3.95481018682581   10.73960855712785    7.82046187926989
H         3.81149998335932   10.72352370574766    6.72703884226199
H         4.75320295901305   11.46930403755963    8.02532125220947
C         0.31310776019831   10.22605614030203    9.82143494356930
H        -0.46489836150495    9.45780707232727    9.81333687918633
C         6.28646822886954    7.93690336186838    8.23709372586933
H         6.91974973728688    8.45308658959429    8.95646344433115
H         6.90822229565678    7.32993096785373    7.58029653967244
C         4.85040805584301    8.23621933544110   11.52506314255515
H         5.26991415255047    9.14666587702560   11.09956568627540
H         4.96148894926827    8.27389457273150   12.60664679103676
H         3.77855989880577    8.21631332394455   11.28120888624845
C         5.46292095534495    8.96328571947256    7.46702625108704
H         6.09876666947715    9.81060719203282    7.17851970503550
H         5.08146307426510    8.52567736792901    6.52996334686895
C         0.81153218352985    9.49932974383855    6.95612803168904
H         0.65334178415576   10.50092914565054    6.54128602681926
C         6.65026571114115    4.58445941120786    8.83727977383064
H         7.45926172861470    5.21310727229918    8.47217865468342
H         6.72913111850663    3.61887744232363    8.34025585564848
H         6.78051181768297    4.42097098936086    9.90389457205270
C        -0.52799940552065    8.77373932155726    7.04709321116670
H        -0.39332313561484    7.77524466935969    7.45993226708069
H        -0.95584113143219    8.67024741983880    6.05143929131434
H        -1.24350092886870    9.31620072323625    7.65947900722328
C        -0.31506199839407   11.56123793738081    9.43449789808834
H         0.39864492861717   12.37471882744046    9.53208914376829
H        -1.15097532753343   11.77221612954201   10.09873598627891
H        -0.69139007983540   11.54850149840022    8.41433146772257
C         0.92399289567483   10.28077877164239   11.22094592635808
H         1.53341455904149    9.39490391259784   11.40971334280988
H         0.14323146958960   10.33478042160852   11.97654933741374
H         1.55857524894322   11.15615153471213   11.33564208070768
C         1.41209670054888    5.23363366184744    8.47856380586806
H         0.91487908299254    5.71635990916326    7.63934704112920
H         0.75707673042003    4.46554200309420    8.88684510501334
H         2.32596572736694    4.77053286235068    8.11591745613578
C         5.00158612494339    5.20217384861178    7.03046095665593
H         4.11115736062014    5.79434356785398    6.80957885039109
H         4.84268365159109    4.19003129989716    6.66436239516777
H         5.83592546187190    5.62786987285335    6.47811997479224
C         1.77256997079984    8.71030258929011    6.06141983624765
H         2.56725383474428    9.34168996491321    5.67304105188432
H         1.24633972051348    8.27729227074879    5.21308981432467
H         2.23278031015122    7.89150965413722    6.63599816281455
C         7.05996602855264    7.09572801016508   11.21089421688381
H         7.62528551938785    6.35560926843454   10.65367567966895
H         7.23706976602501    6.92696381325259   12.27152388784636
H         7.44943660828798    8.08167181548195   10.97121454927355
C         2.66984417681928   11.18360421108867    8.49448039100944
H         2.17610712820888   11.98720319846959    7.94596743746166
H         2.88383678772582   11.51114803209881    9.51371589943676

