67
CSD_code = BIXSUZ | q = 1 | S = 0 | Stoichiometry = C20H40MnN2O2P2(1+) | MND = 6
Mn       11.71434966928354    9.42706362275807    8.48458390748596
P        10.14038271505397    8.11792534770275    7.40348184484276
P        12.74509378500836   10.98810235830736    9.84862606822447
O        14.08688494933806    8.50665845974376    7.03667415300614
O        12.33194191373670    7.27486996350247   10.35480135066702
N        11.33810903185569   10.78929344120525    7.28568690374981
N         9.94294268423540   10.03651904045950    9.65584083121017
H         9.55443021434925   10.83086620749914    9.13576354866682
C        11.19166915124748   11.60464577818740    6.48376439176841
C         9.67619280011643    8.54345319960907    5.64477952502077
H         9.39973751709625    9.60675537227595    5.71718748411974
C        12.06601737803621    8.13210205819071    9.63067022747504
C        13.15033042325311    8.88865515604127    7.58669143258569
C         8.56168826448316    8.57306101451556    8.27100160463245
H         8.11088836527872    9.40844030832105    7.72331700923483
H         7.85493374161144    7.74232691713285    8.27241892966656
C         8.89645285645718    9.00830561221188    9.69318106386488
H         7.99486696920835    9.38857402773659   10.19621780273362
H         9.27377245478979    8.15747452429727   10.26873376934626
C        10.19626044061741    6.25805410984142    7.43621269747255
H         9.49985886343685    5.91534748746767    6.66215494158145
C        10.28154446764876   10.53677615060309   10.99329049577184
H        10.67143246130753    9.70081627560919   11.58212237563521
H         9.38646353761030   10.92504644956231   11.50181419683929
C        13.34638674061367   12.58453745636254    9.08757192484268
H        12.44786152173000   12.96398162518628    8.57682444264080
C        11.33573329367684   11.63159600179142   10.87416414419840
H        11.67584699859617   11.95538334911939   11.85865957873645
H        10.91415044092104   12.49847741921780   10.35272793503674
C         8.47493915471525    7.77785827879653    5.09645816383934
H         8.73655386317923    6.75040714460163    4.85820367798899
H         8.14248780216867    8.25001885628358    4.17368802417918
H         7.63919644194015    7.77537153630807    5.79283709153409
C        11.61515391126411    5.81550108415775    7.08089687241510
H        11.95167612672680    6.25789161240026    6.14623788606773
H        11.65631549545894    4.73299384187154    6.98278116619775
H        12.31175948257940    6.11541146710428    7.86317883297239
C        10.87749970970833    8.42411261911157    4.71018133007657
H        11.77168618786588    8.85078898939167    5.16777107858886
H        10.68053713604099    8.94602580480933    3.77543577423798
H        11.07609374633789    7.38312105800419    4.46889830921732
C         9.77236663608943    5.65158334415512    8.77131724610345
H        10.41771082661258    5.98383469440693    9.57956090023509
H         9.85920122695755    4.56871763310895    8.70697951184706
H         8.73960062285855    5.88280888130894    9.02164176488732
C        11.03010571528672   12.60761072811015    5.47786860027149
H        10.73079190290714   12.14386197232827    4.53731768025956
H        11.97604542722663   13.12910132012955    5.32772492471640
H        10.26960181890571   13.32957194610067    5.77731425061097
C        14.42103485401253   12.32685300085424    8.03425449181403
H        15.37976881849122   12.12227262198224    8.50358407691479
H        14.54547397482068   13.20404677615581    7.40183328252026
H        14.15445569145336   11.47588068404278    7.40510689248993
C        14.06782822779929   10.52652351952716   11.07362612214804
H        14.53417724427409   11.46627926285913   11.39138966546542
C        13.80259671824138   13.63973833141423   10.09170646095310
H        13.09253828250137   13.76264055337075   10.90669933138363
H        13.90006763244774   14.59723522836843    9.58321447399779
H        14.77573722859333   13.39369759452685   10.50807640623646
C        13.53883911051397    9.80619016017631   12.31106531098617
H        12.85637573900801   10.42447911288543   12.88972097571940
H        14.37903117278834    9.55462508592608   12.95534317760181
H        13.04069535312853    8.87789137567969   12.04602748995432
C        15.10143103086163    9.65837008710962   10.35715142198716
H        14.66113243201450    8.70306690318828   10.07323368410219
H        15.94687314751723    9.46395170615799   11.01331399549017
H        15.47119645610084   10.13755644882803    9.45369507293039

