69
CSD_code = BIXSEJ | q = 0 | S = 0 | Stoichiometry = C20H41MnN2O3P2 | MND = 6
Mn        5.15215772315135   13.42632113501488    3.16101176602524
P         3.45360432060401   14.94252969648736    2.99150485740264
P         6.47862428417543   11.62824660039512    2.69512166286868
O         5.66512819252290   13.63916556757005    6.03295393718488
O         7.29781060094537   15.39713281037571    3.03308901739394
O         2.85878361610629   11.51959333050011    1.28743343497693
N         3.61136945336772   11.99785141346593    3.36801343960329
N         4.84549709863543   13.33874288830221    1.03149530321199
C         5.42758875730046   13.52249106687758    4.90090593177638
C         8.33407882437447   11.67095470229012    2.92051571143842
H         8.70676273093095   10.64828557931947    2.79145658804725
C         6.43737945004080   14.61159976522510    3.03365756181188
C         2.82473501941707   11.36693525709864    2.52579409433862
C         3.69133719396433   16.75476650212972    3.38493205486691
H         2.70129643504927   17.22505792861240    3.39142832063741
C         5.92634586236495   12.74333599180191    0.25442666000431
H         6.79651225613197   13.41166328596303    0.27236830370168
H         5.62187450224198   12.60913600444821   -0.79660391776509
C         4.29641837507699   14.54156569691955    0.41627429408578
H         4.04394285238879   14.35742934209976   -0.64091829954058
H         5.04663695838529   15.34168755421400    0.45102228307773
C         1.76446489219836   14.55883847696133    3.69690672455014
H         1.54403000979917   13.58410951652711    3.24149562549869
C         3.04072605374375   14.93945440790681    1.18443863735861
H         2.27856247937492   14.16803868328088    1.03331552650277
H         2.64594039082180   15.90100160800004    0.85066035797871
C         6.26716200154027   11.39011801252791    0.86913383302153
C         6.00392055365419    9.91960111667799    3.28956838551017
H         4.97446778508432    9.82776326721497    2.91826267872628
C         4.32547128377721   16.86530060589303    4.76935120994097
H         3.72297946144592   16.36963104112573    5.52572101553183
H         4.44414256091985   17.91035211903825    5.05135772743129
H         5.30741845590243   16.39257361729137    4.76268466741979
C         0.65142799840201   15.52618981428139    3.30414249023002
H         0.74738935382719   16.47485671992094    3.82762148375749
H        -0.31001900922936   15.09482391859454    3.58038782842014
H         0.63959490595390   15.71527689322644    2.23310863936435
C         4.56607652491965   17.47118108351724    2.36045992100402
H         5.53736313215827   16.98939308469829    2.28498962051258
H         4.72763181803145   18.49969433590405    2.68052226225952
H         4.10519131506659   17.49831093767096    1.37561093852038
C         1.82200248240114   14.37584228683473    5.21163518371855
H         2.73551876682938   13.85330775564107    5.49712625979554
H         0.96534113791573   13.79884203235015    5.55796412881709
H         1.80148527423733   15.33788319289606    5.71935313545643
C         9.03073854874681   12.57614557261695    1.90896491748503
H         8.91957219982524   12.21311239728748    0.88966093596844
H        10.09580128687926   12.61547112981560    2.13370339509569
H         8.63976177139570   13.58838555949082    1.97036427368706
C         6.82045748233587    8.76936247681696    2.70732713382370
H         6.90598642309791    8.84142846852967    1.62541798602134
H         6.32795451813509    7.82691260226798    2.94399422026489
H         7.81896076482670    8.73420320254502    3.13741818651947
C         1.81323250763514   10.38801210926178    3.12176361244565
H         1.21389178034674    9.95258192140677    2.32573451810557
H         1.15878372179171   10.90369772755225    3.82401260356992
H         2.33212441604091    9.59226995478002    3.65579884775092
C         8.63385199396733   12.15599985963510    4.33679717731583
H         8.25414995364961   13.16932860832977    4.46644043069686
H         9.70755260794492   12.16069402105031    4.51816311524571
H         8.16013544008015   11.52519575098625    5.08407219317005
C         5.96934934747056    9.85006641310314    4.81448151943502
H         6.96778706111564    9.69555369413908    5.21814432491065
H         5.34563969482372    9.01976085540134    5.14352569121525
H         5.56820616430970   10.77566475974492    5.22848419460089
H         3.41839146765971   11.72689783321922    4.32959100135167
H         4.06561712147698   12.63201600260919    1.03507451445709
H         5.41359227352089   10.71809265813967    0.73248009608930
H         7.14998731696293   10.94336977418228    0.40768382429523

