76
CSD_code = BIXSIN | q = 0 | S = 0 | Stoichiometry = C25H43MnN2O3P2 | MND = 6
Mn        3.10216027898094   13.53546747064193    4.21238997208837
P         4.40300041881538   12.24599870729185    2.84691602114155
P         1.35892428841051   14.15729468212981    5.55052017971896
N         2.58356113223951   11.60015416096320    5.00208077048555
O         5.18240069943016   14.06944217389534    6.18567437586424
O         3.89400426438612   16.18118913303063    3.24811276834397
O         0.64927069287877   11.24702758585721    3.14994992334484
C        -0.24482542838138   14.75940004551140    4.80053823737770
H        -0.47808739690772   13.96230501099392    4.08146172654994
C         1.96055257890975   11.59844874876341    6.32073358100012
H         2.69696506255244   11.91083890848210    7.07198608886847
H         1.61239028531070   10.58655044341083    6.58541991741023
C         0.77634296124281   12.55857071775020    6.28557456705409
H         0.33303060553449   12.69704644508185    7.27342171084137
H         0.01842745359120   12.15433386652174    5.60654534541940
C         4.00237447075376   10.51421843918228    3.37309238592342
H         3.14770798739140   10.18756027452594    2.77164940403175
H         4.83714305692928    9.83086893605539    3.20490476507836
C         3.58377146921362   10.55187430779220    4.83921747955963
H         3.17302886321324    9.57240723376724    5.13495515759658
H         4.44349889011708   10.76761696647048    5.48597168974398
C         1.59275765012361   15.26731086245607    7.03673296533635
H         0.59741487506350   15.55591098310991    7.39385275950313
C         2.36366552082465   16.50878470883474    6.59440674369778
H         2.47886725274324   17.20126568325639    7.42682853511421
H         1.85929926328943   17.02573716708655    5.78261043090812
H         3.35369132773389   16.22027166411434    6.24178496046012
C        -1.41871266001706   14.87955242570853    5.76826442430983
H        -1.30243950402955   15.73546953036541    6.42951128976043
H        -1.53891696704358   13.98303226909973    6.37205200799405
H        -2.33552464291136   15.02636187224364    5.19851517590635
C         2.34114452152448   14.57856407636080    8.17408245833396
H         3.30985184320977   14.22340336205619    7.83216542180961
H         1.78133171994450   13.74233848120992    8.58678172177632
H         2.51239176729696   15.29325368148335    8.97795508561270
C        -0.04234945883284   16.05863354599207    4.02479700748497
H        -0.85521075749917   16.20659289776930    3.31445708690059
H         0.90306844037599   16.03434681649002    3.48132715715106
H        -0.03167424999819   16.91378299609892    4.69748812818976
C         4.02116693636344   12.11644778338187    1.01935468400520
H         2.96092287619250   11.82931153584046    1.02307510398629
C         4.14194515915002   13.47235285971198    0.32654595022936
H         5.17401065468180   13.67484087495643    0.04780371413903
H         3.80032187008088   14.27057965843090    0.98635534079603
H         3.54061039751750   13.48907932900527   -0.58150106410895
C         4.79538986129244   11.04304843265843    0.25973916205706
H         4.34751177309623   10.91209661162123   -0.72460446629739
H         4.76670363770755   10.08432448788767    0.77288191987010
H         5.83370220868974   11.33176525851319    0.11208744191986
C         6.27079113503372   12.29405883149433    2.90245769421220
H         6.64331619864825   11.70419625582437    2.05706704450820
C         6.71631818804803   13.74693352992961    2.75725641524608
H         6.32279040956174   14.33638044570548    3.58551724365251
H         6.35198230574693   14.18577199040467    1.83241019510160
H         7.80307198502366   13.81452482205615    2.76727936157076
C         6.83609345683063   11.70869326463380    4.19310801174055
H         7.91853351381355   11.82982303937441    4.20047758356274
H         6.62029951718418   10.64695649221132    4.28989691960597
H         6.43628607157038   12.23326189926884    5.05703436491854
C         3.54888724768184   15.12670358508817    3.59498148417938
C         0.78262460750304   12.28387367930384    2.46113424295051
C         4.34345316954944   13.81163295084265    5.41972944998777
C        -0.39436217460119   11.27788304341922    0.51750571493836
H        -0.03520669975583   10.32441735003847    0.87803482034364
C        -0.06765541137032   12.42684613299435    1.22903588409628
C        -0.54590814469068   13.65670829074193    0.79064780215028
H        -0.32459940569475   14.55905689625261    1.34487250818498
C        -1.63576566422051   12.58548290019149   -1.06010299819170
H        -2.24417458764498   12.64949202071957   -1.95065518480303
C        -1.16697712343588   11.35678870452014   -0.62562078397681
H        -1.40831476811301   10.45911675880254   -1.17669918078730
C        -1.33020401504821   13.73213420524598   -0.34616610101550
H        -1.70524075286652   14.69059612309483   -0.67608088994956
N         1.63854297502159   13.24488598609409    2.73182265149437
H         1.81267101401146   11.37749538730301    4.32081965238064
H         1.59946300102264   13.98671130057322    2.03766887961550

