85
CSD_code = BIXVAG | q = 0 | S = 0 | Stoichiometry = C42H36Br3IrP2S | MND = 6
Ir        1.36439713923420    6.94944346665595   15.08320974419419
Br       -0.79315202246883    7.67820832510328   16.30444670987902
Br        0.32574533516767    6.98559831202768   12.73392645878383
Br        5.91408193974498    6.37485702853864   13.61529096722911
S         1.23716363795370    6.73225873933725   18.25103438365909
P         0.66385058570772    4.72126668838380   14.87327447823125
P         1.74492805551265    9.26589872180722   15.15026481474321
C         2.25741169065067    6.61104964086778   16.88357118400956
C         3.59850166373915    6.26406414880792   17.08559874409567
H         3.94164616123661    6.04093271841236   18.08768807673816
C         4.56495173888170    6.22830367878967   16.11282941369654
H         5.57902134654209    5.99813042653142   16.41184214811877
C         4.32602607432502    6.45944115893345   14.74630953509858
C         3.12971110879690    6.67007541205707   14.16923702083901
H         3.13887968013443    6.75458705809203   13.08429848118481
C         2.19836914697361    6.23701586981586   19.72429684345967
H         2.54782199137610    5.21397512796236   19.62332347952649
H         1.48557026409306    6.30087493770153   20.54038469801878
H         3.01540946553687    6.93025129461605   19.89872996461862
C         0.76316134728949    3.73838762029309   16.41334801036361
C        -0.15256217243850    4.10882118647416   17.39880776443919
H        -0.86674685352602    4.89550524078769   17.19558490684394
C        -0.16223651046190    3.46921512282607   18.62336344894026
H        -0.87427563920291    3.76843333972814   19.37803398110661
C         0.74130761330355    2.45033982083140   18.87870450862718
H         0.74203047218542    1.95244394916630   19.83733146381340
C         1.63494112157751    2.06092040326152   17.89536261748685
H         2.32649390236441    1.25181862729417   18.08207575470164
C         1.64838160459838    2.69853095206562   16.66620411284593
H         2.33606909577465    2.36386308909679   15.90413582814808
C        -1.02879460102091    4.22033355920422   14.40888186000650
C        -1.23383049640080    2.84295255397491   14.31249829542584
H        -0.40799397048214    2.16355548103561   14.48315039890450
C        -2.48224853770327    2.34922251191727   13.99478046320472
H        -2.63279703026502    1.28232618957055   13.91627451321763
C        -3.53891606889806    3.22188079409667   13.78011831307073
H        -4.51557527288913    2.83322916256210   13.53228969041347
C        -3.33949900046955    4.58589255872052   13.88659853800743
H        -4.15842330492907    5.26989489915247   13.72533390821587
C        -2.08796413018255    5.08973079114425   14.20138253724620
H        -1.95748928576701    6.15613316038248   14.28325129378139
C         1.69780461618343    3.86463947757109   13.64770593224377
C         1.19990467785439    3.56297065895944   12.38478966323604
H         0.16809705692161    3.77546861797660   12.14519175865397
C         2.03403806598398    3.01535208853246   11.42612679422784
H         1.64175428399508    2.79036583261262   10.44575402739408
C         3.36625345363534    2.77310958987749   11.71451791057822
H         4.01635077130228    2.35230695836906   10.96220789523246
C         3.87224076767318    3.08967078426893   12.96526342965193
H         4.91599376353995    2.92243893576077   13.18725724886437
C         3.04541114089325    3.64259702009478   13.92450860523105
H         3.44780159386702    3.92378233277467   14.88825186723787
C         3.20960979041000    9.82767279418978   14.21193618131312
C         3.19351584363575    9.52023518081018   12.85208228381082
H         2.33860533720380    9.00755121536438   12.43169535392214
C         4.25428263823063    9.87472853957846   12.04213536491056
H         4.23666603644455    9.62070982416914   10.99303756031057
C         5.33916528635804   10.54914361918809   12.57921887879957
H         6.17742520166335   10.81385217925182   11.95251941438979
C         5.34221826535012   10.89107488024966   13.92009237884800
H         6.17671799758288   11.43516382488885   14.33829903559673
C         4.28115579691138   10.53827656387265   14.73689940038533
H         4.29401573899066   10.82836545444444   15.77784277260880
C         2.01887753450755    9.79415705650325   16.86793950262605
C         3.20382277821457    9.45138524988338   17.51583378898995
H         3.98159031356419    8.93278451622183   16.97122274891985
C         3.37860530365577    9.75500004846182   18.85283751253126
H         4.30644598675778    9.49745763273717   19.34489723599473
C         2.36378062991746   10.37882132742163   19.56180383690641
H         2.49839680546279   10.60517063372877   20.60933190760945
C         1.17484669467440   10.69794408838968   18.92844511295183
H         0.37523493790752   11.16700001014866   19.48170264391209
C         0.99894511169076   10.40784411519201   17.58700002290993
H         0.06267256110293   10.64195772186133   17.10123356215809
C         0.55776589534818   10.50907974758016   14.53908150685669
C         0.94738042115300   11.84021458816027   14.69292758906904
H         1.89217397078356   12.07351110626922   15.16707692021682
C         0.12808849327181   12.85639472296568   14.24617433152194
H         0.43267034072286   13.88524043507825   14.37197169991191
C        -1.08050901105733   12.55524450651787   13.63561088761064
H        -1.71924245867769   13.35261325265814   13.28553203672840
C        -1.46292816388512   11.23620627896793   13.47499477486047
H        -2.40035303050388   10.99570254161602   12.99773199942425
C        -0.64785914647844   10.21012998713429   13.92404010568309
H        -0.96400137815590    9.18940029176769   13.78940716007426

