117
CSD_code = BIXWAJ | q = 0 | S = 0 | Stoichiometry = C51H62CoN2P | MND = 8
Co       10.37264777226057   17.79918127578919   18.86505116163656
P        12.07840594509586   18.85617929394147   17.92191128755559
N        11.10726195255385   17.88696503129339   21.71150739230365
N        10.72804852871386   19.86363040880797   20.95364992675194
C        10.75731878740249   18.55902919319591   20.57975736064840
C        10.22711406738143   16.77703880875633   17.10053885398171
C         9.12496625551699   17.66957593231264   17.11264224345679
C         8.14499490283952   17.52471971472321   18.09486455448799
H         7.24640451860961   18.12382457496562   18.04587901350621
C         8.29181091046637   16.58996035336332   19.12051682977406
C         9.38084767457944   15.70628164257595   19.09514558995357
H         9.44871518242769   14.91928587503315   19.83632928563149
C        10.33384839319589   15.75941830499433   18.07079445144738
C        11.38083985047607   14.68950042534170   17.95896108763550
H        12.22093240733486   15.02916781899272   17.35697019400679
H        10.95202454382079   13.80934282611097   17.47532675772391
H        11.74094809131892   14.39621158009839   18.94332681005559
C         7.21335909533584   16.46766162560918   20.15801667016034
H         7.54962574152981   16.86142427113210   21.11542011504767
H         6.93126337465847   15.42542272563308   20.29944155019796
H         6.32923755512791   17.02588939073670   19.85566417302832
C         8.92178154732232   18.65018036871515   15.99203993356875
H         7.90465104779812   19.03799515912884   16.00604574342068
H         9.10634702186643   18.17667150302950   15.02813988476377
H         9.61005860876266   19.48965731348229   16.08716764331379
C        11.23847478413341   16.99887838393418   16.04541403500809
C        11.30695598015650   16.28129974018020   14.86277329791855
H        10.65408494971852   15.43273901684811   14.70610020064513
C        12.19828353825299   16.67372738116622   13.87743152693737
H        12.25466451362605   16.11992579467479   12.95088246030413
C        13.00186930445193   17.78632741978383   14.06703103356847
H        13.67619817333430   18.10620338843010   13.28418870073042
C        12.95553903183056   18.50127379343172   15.25591700276820
C        12.07331633862148   18.09857535647251   16.26070760026004
C        13.82382302814680   19.67927844404025   15.48357408459395
C        15.14436716023003   19.48468938158726   15.89758090582128
C        15.94896330485130   20.58360485694249   16.14801269719782
H        16.96851701516031   20.42949722246931   16.47437332718247
C        15.47301316092089   21.87798064420820   15.99220350055055
C        14.16863569748941   22.05377837584108   15.56151763117200
H        13.78305037779362   23.05502638698983   15.42285200070337
C        13.33714605047027   20.97292493055036   15.30119660709042
C        11.93675302265521   21.22945398617009   14.82586158624870
H        11.48714305440980   20.32448675132261   14.42518395187493
H        11.93361931749112   21.99642176093765   14.05263464047701
H        11.32118352813028   21.58692163433404   15.65303096003906
C        16.36159980220305   23.05761834878075   16.25606013691004
H        17.09656494751325   22.82450936815734   17.02344054638813
H        15.77917109341051   23.91967102420708   16.57461037593614
H        16.89871541472803   23.33329711958586   15.34746955890410
C        15.68215267168690   18.09425794152174   16.05578982254337
H        14.97000967462733   17.47147003317890   16.59259338934595
H        16.62699087534092   18.10284439797020   16.59423005569476
H        15.84719465270664   17.64022643281774   15.07834923537227
C        11.04072138721493   19.99835458340601   22.28292333012807
H        11.06299596591595   20.95040488774219   22.77213146566687
C        11.28120558829092   18.75936706558505   22.75803050213285
H        11.57576233373171   18.43348557902592   23.73367144924351
C        11.50097773880409   16.52206579693084   21.78135415068297
C        10.72275167586115   15.59267357379863   22.47845028560604
C        11.15414122646865   14.27266378866972   22.52603709788530
H        10.56884827988602   13.53784572251182   23.05581480772398
C        12.32739872799047   13.88642606473697   21.91001508738002
H        12.64133119148843   12.85329459858536   21.94656372737879
C        13.11533064530936   14.82756143910421   21.27566817889532
H        14.05247683856635   14.52208240938742   20.83877501242113
C        12.72850607583869   16.15907641554336   21.20943721765515
C        13.66918529968756   17.20021268145583   20.65346404883604
H        13.08945793937871   18.06647224179833   20.32839352636397
C        14.62410750984194   17.63833210476494   21.76943679609167
H        14.07410561612171   18.04348156323560   22.61679187053039
H        15.29868159252508   18.40605562216817   21.39840643741396
H        15.21628537210292   16.79409359442085   22.11815846428598
C        14.45224785175005   16.73014479675318   19.43320876480229
H        15.16221925567572   15.94272712906107   19.67497371787257
H        15.00317367458889   17.57314532983787   19.02448036674234
H        13.76275615686651   16.37305270537233   18.67322660651215
C         9.47335748154901   15.99461649826140   23.22880973135633
H         9.12563194599174   16.95595625949826   22.83572786445909
C         8.34810994279902   14.96630731970959   23.08336172828272
H         8.26139220988414   14.62703989143659   22.05566039348715
H         7.39987746822487   15.40525820452051   23.38660590048639
H         8.52872601069031   14.10044621907266   23.71580742201626
C         9.79636803196011   16.16424417811841   24.71799187110080
H        10.16686900082209   15.22767956533789   25.12952939868005
H         8.90022884049460   16.45206226112811   25.26370541026479
H        10.55421885563360   16.92559027601624   24.87947833888579
C        10.60697162579903   20.97341016113135   20.07395246839226
C        11.75691095792306   21.70850246346709   19.76094061648367
C        11.62949800658525   22.77995184088233   18.88558107332589
H        12.50191208122324   23.35479812094864   18.61875818062291
C        10.40486130756428   23.11480215747032   18.34631485068486
H        10.32539509038567   23.94534906959935   17.65970432529046
C         9.27303943743540   22.40087882793974   18.69501970960284
H         8.32240336330070   22.69585523167484   18.28203802114029
C         9.35128262702690   21.32289422787708   19.56433761228537
C         8.12039235625327   20.56511351128615   20.00815310902814
H         8.37711482683629   19.49949719556730   20.01516124298142
C         6.92013036063195   20.75724478176117   19.08443049034934
H         6.51625950895323   21.76415308706288   19.16885254566463
H         6.13042132124493   20.06135005244181   19.36239698531921
H         7.19783916223053   20.57433772709361   18.04979558133002
C         7.73722713421835   20.98920225873008   21.43076294811062
H         8.53097429575522   20.76661626211630   22.13887534141422
H         6.83907005084391   20.46332870271389   21.74851736684687
H         7.53878149534108   22.05920717835534   21.46233344718241
C        13.10627450728840   21.41459999433934   20.37638608319425
H        13.06429096945322   20.45130848135316   20.89001956525065
C        14.21805366986228   21.32218761231692   19.33159739437889
H        13.95627395456974   20.59121480273481   18.56906232518110
H        15.14343276872327   21.00870474866674   19.80963637177291
H        14.39608633313061   22.27725403677912   18.84668229368277
C        13.44377485729211   22.50019681780376   21.40502346415755
H        13.53394678238124   23.46864398759556   20.91866895814458
H        14.38776564176789   22.27099867893769   21.89433107987779
H        12.67112239497102   22.57621482984545   22.16701388038318
H        11.55769113855834   20.07593805022577   17.47704231039281

