48
CSD_code = BIYFAQ | q = 0 | S = 0 | Stoichiometry = C12H19B2CoF4N6O4 | MND = 6
Co        6.79562332337063    2.45508081682422   10.54593293026149
O         8.34972963366691    0.18456127267505   11.29772426224238
O         9.62286637910182    2.26913574177694   10.87137928983922
O         5.25240195528009    4.71436803705615    9.71357583788207
O         3.96586432903409    2.61478268159889   10.15419778245215
N         7.15669094619087    0.69909254512889   10.96436837685546
N         5.04068874482836    1.91058872075331   10.52371763416247
N         6.43303849290629    4.18810813983162   10.05615696073410
N         8.55549220635746    2.99023106673225   10.49635335681198
N         6.84382932909826    2.82630595583571   12.55553679851645
N         7.56199010149497    2.79045444116142   14.62124064376648
B         9.56232989551865    0.78534348531654   10.64703118604494
F         9.54725487221211    0.51973140110123    9.30322383609731
F        10.64106412454017    0.25643302235194   11.28012751968960
B         3.97810324029216    4.10362945152815   10.17836854023638
F         3.00117522782268    4.52545388291313    9.33849442652883
F         3.72464094508304    4.53025832637056   11.47486672286090
C         6.13967470056598   -1.46473399662355   11.53300584149889
C         6.10297900218175   -0.03575436734724   11.10659039816798
C         4.87413580112606    0.65799247189543   10.80709348329695
C         3.54538471919906   -0.01943660891169   10.80332647409253
C         7.44310381451862    6.35648764333317    9.49079095620870
C         7.48557138481287    4.93211618300463    9.93104240295128
C         8.71761975671701    4.24521659626417   10.23289364190331
C        10.04405378642601    4.92753819470450   10.23146222219179
C         6.81476697630643    2.04976878592162    8.61301320777130
C         7.80955112481257    2.42152689337217   13.35616121286554
C         6.37672039225036    3.46613090236161   14.63120960957953
C         5.94018182269186    3.48149055847032   13.34140723361310
H         8.14791446049682    2.59969798934197   15.41824105327691
H         7.17077541968108   -1.80960984251956   11.52811927699637
H         5.54448933034878   -2.07583755425205   10.85831774513805
H         5.73664132585412   -1.57328096447176   12.53921722655842
H         2.76228449649522    0.73440915369078   10.78081578472661
H         3.43061273700942   -0.64958130254515   11.68190202874978
H         3.44691736204161   -0.64379545384628    9.91601127810217
H         6.41565384586083    6.70974118224673    9.52873886280445
H         7.79900746565329    6.44128049843319    8.46466770687254
H         8.07289481367025    6.97533037851672   10.12542140066233
H        10.82843831435797    4.17747240276525   10.29745748649061
H        10.12759973780611    5.59976514727969   11.08464816023643
H        10.16869380437293    5.51135540943608    9.32246158727465
H         7.70637326230026    2.45787342782996    8.14141061675383
H         5.94081491375295    2.47290206225926    8.11939910368379
H         6.81795851729941    0.97486840046226    8.44435529970008
H         8.68153842625940    1.87049514758878   13.05897954659392
H         5.94812051529440    3.87121756457886   15.52341950425503
H         5.04954422303841    3.91879410780392   12.94172354200238

