48
CSD_code = BIYJIC | q = 0 | S = 0 | Stoichiometry = C11H31ClIrOP3 | MND = 6
Ir        1.73371339142023    1.63474154539504    9.81756872679087
Cl        3.31001885922598    1.08456557689793   11.56570036575805
P         2.65258844243593   -0.06169456892756    8.44680202310113
P         3.37622718878842    3.20939034912222    9.33051816444568
P         0.15301101820184    0.26166149076889   10.85011572567772
O        -1.77173974976051    2.50373617256719    9.22598377807299
C         4.11607056481820   -0.95199550458016    9.08940262366617
C         1.63970255620410   -1.50252174992063    7.91435356532394
C         3.24558080773611    0.44000331614183    6.77834976363876
C         5.13948163790024    2.70470562424585    9.25852777358922
C         3.49190617397343    4.49001219476770   10.62944959255286
C         3.25455483385960    4.27721394941538    7.83707658337008
C         0.83653483870586   -1.17261243839053   11.76797593063461
C        -0.75491771257051    1.11231650891712   12.18524210073180
C        -1.24890121450201   -0.50099302949985    9.95068911360038
C         0.35486473963181    2.14419243312437    8.20447071887004
C        -0.71162844280185    2.92652102917972    8.79829993422775
H         1.14800965724460    2.74253394085478   10.69351177688553
H         4.46649077272826   -1.69618840009572    8.37376398131215
H         3.84317232135378   -1.43280941456059   10.02740729589005
H         4.90814446081148   -0.24014578981487    9.30836331101944
H         2.22760475050103   -2.15657836409220    7.27010614547613
H         1.30560236436753   -2.06579677887917    8.78329832068444
H         0.76880132494899   -1.15049328947151    7.36418746703257
H         3.69858424600700   -0.40587393279598    6.26148162991128
H         2.39619893934318    0.80191882249535    6.20121507749429
H         3.97426584066426    1.24322965610076    6.86077759838053
H         5.76863548460971    3.59133929893920    9.18316201572254
H         5.36891306959610    2.16942685105577   10.17822425822672
H         5.33048051445148    2.05469042935087    8.40757369104899
H         4.30321480296651    5.18593326389872   10.41529723759458
H         2.54576886455902    5.02417758458322   10.68729345777207
H         3.66998292178020    3.99087865374508   11.58002405498801
H         4.06698812567547    5.00251953559619    7.82693471205442
H         3.29780167702873    3.67526508415026    6.93198629506200
H         2.30193611498926    4.80200306425311    7.86301223466267
H         0.04520613479585   -1.66319289160620   12.33389516540619
H         1.28943577977071   -1.88546833792269   11.08189196171041
H         1.60729168453602   -0.80929913443772   12.44475226298328
H        -0.03883385120878    1.53996482777096   12.88410949432474
H        -1.33897657388409    1.91244294014360   11.73476502496329
H        -1.41506645361472    0.41645108459436   12.70294723143753
H        -1.86488912767572   -1.05808040309325   10.65540181837201
H        -0.90393643375790   -1.16790453607874    9.16559154111185
H        -1.83218259885683    0.30755309400604    9.51378678555628
H         0.89733656911020    2.71207487296088    7.45052777075340
H        -0.02962819959207    1.21209944158061    7.78632398580915
H        -0.49992111651265    4.01538592755047    8.86645991229678

