76
CSD_code = BIYLIF | q = 0 | S = 0 | Stoichiometry = C26H37BMoN6O5 | MND = 6
Mo        2.18882723959108    4.11101492478761   -0.51706011161302
O         2.02943957835321    4.73421377918788    1.14766007760843
O         1.35680573844020    2.67928812875969   -0.44039739125571
O         1.25574804521923    5.17698187632944   -1.37877282474214
O        -0.29763944584352    4.96330851471777    2.92114049824821
O         0.04073778256096    5.68189155344549    5.33377121126143
N         3.18533323147190    3.50051400821286   -2.29393050038397
N         4.51960441448115    3.42294286116271   -2.45002845945968
N         3.87203351982577    5.62605376766668   -0.63401424791752
N         5.12337468675387    5.32195367386888   -1.01255559566413
N         3.94516322041735    2.97774789211756    0.37759847771498
N         5.19313274913721    3.03212487578019   -0.11375625430505
B         5.49011261146690    3.87693492280767   -1.35044778967695
H         6.61634747730172    3.77657126990247   -1.69375647518543
C         2.12157460255992    5.12311419551463    2.41178091447968
C         0.99953692648849    5.22438499420394    3.25352217941736
C         1.18498579151327    5.62208387146971    4.59484464720370
C         2.45099138503242    5.91647197044374    5.07579259714421
H         2.59414028212802    6.22104514374338    6.09915231502647
C         3.55051831730515    5.82246181423606    4.23574038970421
H         4.53405519042053    6.05411196978688    4.61564365133641
C         3.39036488198442    5.43230809662353    2.92642950089367
H         4.23846146338524    5.34399511087611    2.25885604088202
C        -0.67171041609995    4.67714805346082    1.58879294754626
H        -0.37861617974241    5.47301115737533    0.89164701100101
H        -1.75981522686432    4.61218479521421    1.61961301382070
H        -0.26417486521333    3.72180625443964    1.22892972354840
C         0.13701971455210    6.05479264885980    6.68455657382358
H         0.75663583682482    5.35452467502144    7.25518979969222
H        -0.88150567438164    6.02723431277434    7.06877434772457
H         0.53766837335763    7.06794871321277    6.79846425519564
C         4.80567089172985    2.96603471093468   -3.67341525737301
H         5.81956390564281    2.83279434531151   -3.99396099602975
C         3.62144440784592    2.73870081490446   -4.33973205664671
H         3.50051480314404    2.37189210948291   -5.33753456797396
C         2.61569895241856    3.09338308432935   -3.43360493257215
C         1.13550248938396    3.03602676448148   -3.63063851629395
H         0.68339649765475    3.75988231415687   -2.93951895675526
C         0.75667156476848    3.38708290085242   -5.06979298167205
H         1.17945476651510    4.34717317208024   -5.35525491991396
H        -0.32467759503260    3.44783857036956   -5.15888373530971
H         1.11294203140884    2.62701366933627   -5.76206505790071
C         0.63159385251917    1.63797495469117   -3.25483857286606
H         1.13530164935633    0.87368805828822   -3.84470692993498
H        -0.43840398816899    1.57061070640897   -3.43157247760324
H         0.82161681881080    1.46893898441686   -2.19629732587068
C         5.87437837824258    6.43056136487768   -1.03767164186948
H         6.90867705177285    6.39452516741295   -1.31519673418816
C         5.08295424010158    7.49377922484185   -0.66441645594608
H         5.37234526409450    8.52079116194462   -0.58209366002692
C         3.81927069146194    6.93969215705349   -0.41847791780634
C         2.56976359030187    7.66245757643394   -0.03162440276367
H         1.81499237222202    6.91939081928032    0.24633661384296
C         2.04108734313031    8.42540699091509   -1.25038875850073
H         2.79146836096225    9.11452986090224   -1.63363963038819
H         1.15258365222210    8.99029849439420   -0.97927912027944
H         1.77493675322233    7.71379773551395   -2.02871643660645
C         2.82007426711724    8.60093872961285    1.14951067033060
H         3.21018139559115    8.04847365813722    2.00205430757300
H         1.88885644935741    9.07636847110875    1.44793194116905
H         3.53091356327772    9.37921916060738    0.88023600241023
C         6.00418782376407    2.25088569705763    0.61125850231980
H         7.04568721215428    2.16171940855110    0.37584007172004
C         5.25667469343139    1.66450796040907    1.60757762864847
H         5.59750619601143    0.98400437793373    2.35983123496224
C         3.95498102242466    2.15002219224568    1.42200170109557
C         2.73105411348214    1.77459194798517    2.19326026024487
H         1.92461728082667    2.46107128914451    1.91745324011174
C         2.29908624951055    0.36489225138382    1.77604109662481
H         2.03606409438769    0.36894393661021    0.72079814676710
H         1.42747083981316    0.05861027765514    2.34903751612345
H         3.09996604535829   -0.35290976518356    1.94399452627912
C         2.97794166784862    1.85658337743067    3.69991571158214
H         3.72413498102530    1.12753807765807    4.00855488391310
H         2.05498022844082    1.65078005573383    4.23641149949435
H         3.32092187802183    2.85052335628146    3.97949596479852

