73
CSD_code = BIYMOM | q = 0 | S = 0 | Stoichiometry = C26H35BMoN6O4 | MND = 6
Mo        2.74441611357256    3.05950354857025   13.39291215194002
O         4.30142786515765    3.61376622639414   12.53822290664406
C         5.58878902134273    3.31717641661370   12.58303437021702
B         0.18306235485926    4.87772576076716   12.08315209688348
H        -0.73540484918222    5.48516689617430   11.65534555648160
O         2.75027346325969    1.42756675977200   13.14370434350436
C         6.06407029295275    2.35459533878481   13.48005737916988
H         5.35087199941534    1.86081460311596   14.13996031134582
O         3.09143855405733    3.30337271299974   14.98793260784839
C         7.41537891417168    2.02805326756802   13.53016370258041
O         7.09437474945102    0.56589075386355   15.35638444119821
C         8.31116181062920    2.67760101792304   12.67713788960373
H         9.36456917434261    2.45075541107683   12.70284708389572
C         7.84828864619274    3.63613689146645   11.79516182060303
H         8.54343808104294    4.14128084847851   11.13989136467081
C         6.50512890619521    3.95811543423496   11.73764715069518
H         6.14656773657936    4.70633067992690   11.04386951655936
C         7.84353011517645    0.99172739264539   14.50838226102139
C         9.26460930156383    0.48732902304995   14.39191928585832
H         9.40923256999628   -0.33385943858002   15.08938201423741
H         9.96044011489096    1.28648460303328   14.63831913797695
H         9.46587719004314    0.14677840320842   13.37941634228545
N         0.63488599289227    3.05839758842783   13.75504283591733
C        -1.47630682104420    3.63702903573541   13.64378153396634
H        -2.32711308613908    4.19041303758797   13.29978492507633
N        -0.25138661218103    3.88109319262929   13.16753999257132
C        -1.38727107343160    2.62156898657344   14.57129565474927
H        -2.18667687831574    2.18914264347278   15.13576272998580
C        -0.03124926746586    2.27738689311695   14.61231514787240
C         0.63466012335604    1.24112342846400   15.45812194686881
H         1.55256928994197    0.93019744777000   14.94155209877472
C         1.03315681739908    1.86606918421437   16.80026406064017
H         1.76383660186099    2.65338875880102   16.62245499482652
H         1.48613369448518    1.11168981855824   17.43740073479328
H         0.16315953547067    2.28072648047531   17.30722455602107
C        -0.27524211893951    0.03014619150131   15.66667067168278
H        -1.14281091742306    0.29475872333791   16.26760149603717
H         0.27196359877405   -0.75208551423389   16.18558908284962
H        -0.61630284417955   -0.36403335593371   14.71254835797527
C         3.45390400051438    1.68406875732614   10.14513592643814
H         3.88492452667256    1.59732013043727   11.14866780237054
N         2.32499847548581    5.26502666697665   13.28556616168153
C         1.24506330050505    7.12466646429294   12.83945286736318
H         0.45282543668781    7.72870561464241   12.44503570360875
N         1.23021670363689    5.79155674163789   12.71426327103855
C         2.38940500683165    7.47857936345591   13.51798243651420
H         2.70726637626313    8.46528726088783   13.78439680063771
C         3.04482859427230    6.26898017143068   13.78607489351656
C         4.32373090923352    6.08463656399477   14.53811624318481
H         4.55573580393404    5.01447083442157   14.57137478685253
C         4.14439370838552    6.57397594302039   15.97776759911499
H         3.87285020707534    7.62771172063176   16.00123077356963
H         5.07004562436567    6.43966335487412   16.53149474080759
H         3.36438497072563    5.99596635446515   16.46691831777579
C         5.46470087712051    6.82923984330681   13.84195146598437
H         5.57230422631553    6.48471474468698   12.81626855669752
H         6.40075018081919    6.64572357732161   14.36369737125680
H         5.27678912638296    7.90125178587472   13.83234952949519
N         1.93545991790498    3.28533458146350   11.31041173163207
C         0.60625230523913    3.94953283098463    9.69355359258931
H        -0.20207778451230    4.49501095018369    9.24954467325624
N         0.88559809821139    4.06219914536244   10.99827197543767
C         1.50474475869569    3.06741515150914    9.13680323696554
H         1.55933615339137    2.75457807726840    8.11466103860626
C         2.32845167508888    2.66655585081008   10.19752599432206
C         2.91432252623842    0.30920768315389    9.74187829414132
H         2.19199493255831   -0.03132579469979   10.47944901855687
H         3.72853937165130   -0.40983141440696    9.70055393489636
H         2.43387963427208    0.34905687967396    8.76611843720328
C         4.53211225894393    2.16001467012817    9.16948795313559
H         4.13827127021008    2.21556314546963    8.15636818773262
H         5.37205854790960    1.46962005432660    9.17777872357393
H         4.89569011823764    3.14359720343126    9.45665340423261

