74
CSD_code = BIYMAY | q = 0 | S = 0 | Stoichiometry = C26H35BMoN6O5 | MND = 6
Mo        7.22999530296779    2.41351353970658   17.72760522330158
O         7.05219247674248    1.15293511725995   19.01741165341056
C         6.57415011012929    0.30861532342753   19.89704617279013
B         9.48742288804771    4.66286976317328   18.96531247817335
O         7.73085174192577    1.60446815163725   16.37423636775982
C         5.39296030516695   -0.43026441096669   19.65842049843507
O         5.69582684115178    2.95350437207581   17.43498432894581
C         4.88387155548025   -1.26156736387458   20.65034442515665
H         3.96694153294234   -1.79322433323231   20.44404856670623
O         3.45156485934534   -0.41066280337910   18.27723263455330
C         5.53468207947213   -1.40934790327585   21.85926693049442
H         5.13606489173041   -2.06707641011826   22.61576391926386
O         5.46448579261528   -0.04531935366972   17.34904757161696
C         6.70438928451491   -0.70036906872763   22.09642923608516
H         7.21808849589364   -0.80763749506892   23.04111743108339
C         7.21185305626765    0.15275471687806   21.13874983838821
H         8.10924858882437    0.73015631174503   21.32440064140203
C         4.64944149295674   -0.28931074501613   18.38081413613874
C         4.84591719632512    0.20963913144039   16.09425036831786
H         4.29446862331168   -0.67391153249513   15.76177819180551
H         5.66315214019331    0.45666889425210   15.41926887665943
H         4.16278826811874    1.05705162811834   16.18813474368460
N         7.23968140238374    3.76495171519805   19.55268066711266
C         7.97649613537233    5.23996801398574   21.00163300558060
H         8.67092041623473    5.93749108912805   21.42512293969473
N         8.26189230968187    4.57305020464252   19.87580511304509
C         6.72364359831622    4.85480816508667   21.42373022460950
H         6.19572326355180    5.19791848987269   22.28900501205554
C         6.28934837234690    3.91995639797559   20.47390527929814
C         4.95946884984951    3.24052761973122   20.41012877409687
H         5.01303234115870    2.43507632344235   19.67018269066489
C         3.91542596985238    4.24619887893430   19.91325055206854
H         3.87296286290390    5.11750219254214   20.56451991077638
H         2.93539492115807    3.77681706835959   19.88757982627705
H         4.17417208374495    4.56224936154932   18.90512819449936
C         4.56470157692937    2.65964923845451   21.76787012727920
H         5.33767057331986    1.99155168593410   22.14189626169802
H         3.64313831210766    2.09140283588570   21.67044395405862
H         4.40539583078340    3.45307965202820   22.49500461803532
N         8.03256158759896    4.24266324654575   16.95015995725166
C         9.27198053506578    6.04471754249055   16.78922235119792
H         9.99741988281441    6.76960163556730   17.10008634388707
N         8.96301880431977    4.99785631803709   17.56087545000583
C         8.51893941299248    5.97305810510182   15.63758876124106
H         8.52708628068491    6.65757736917786   14.81534746778797
C         7.74189313815523    4.81801937689730   15.77804332525477
C         6.74780418732881    4.25207511476986   14.81604367369825
H         6.03982716883935    3.64680392264096   15.39667411229237
C         5.99714178241633    5.36158567809661   14.07906372812620
H         6.66639185534195    5.91435289897829   13.42322986946873
H         5.54640553567542    6.05493799146871   14.78469496853304
H         5.20737143864316    4.92817913327078   13.47122291496016
C         7.47156523519464    3.32869136966013   13.82952072366264
H         8.25192206889953    3.86955251622069   13.29666060103833
H         6.76416119675466    2.93076149386393   13.10681960459763
H         7.91349216199872    2.50100330188284   14.38191409489439
N         9.37980054824561    2.24587997518512   18.42388581996889
C        11.33505113258017    2.84672652292196   19.21895472818289
H        12.06895068119818    3.52024595880050   19.61371283322029
N        10.10754269779019    3.27057981493024   18.89093897144974
C        11.40717412085932    1.49738622916238   18.95331401163082
H        12.24812333476333    0.85166091085866   19.09970148117758
C        10.14454775771163    1.15553948221571   18.44857767473780
C         9.69593144659530   -0.18088354792965   17.94910376720317
H         8.61594771049627   -0.14040264863409   17.76525817822282
C        10.38596185195514   -0.46491226164080   16.61111606768899
H        10.08315761861001    0.28552617508576   15.88493863894970
H        10.09058185019776   -1.44336042859978   16.24079573644952
H        11.46898228227998   -0.44275040533232   16.71904433380369
C         9.99741944990996   -1.27910081248171   18.97005731937097
H        11.06863212870249   -1.36711601851411   19.13962865211285
H         9.62872043847656   -2.23445166232923   18.60456267326602
H         9.50948108535226   -1.06719059058914   19.91910455811671
H        10.26038524774216    5.47130182961698   19.34608522153984

