55
CSD_code = BIYQIK | q = 0 | S = 0 | Stoichiometry = C14H21CdN9O9S | MND = 8
Cd        1.90875472481605    3.34763679234400    3.96525359953903
N         0.17357108144251    8.48868253724822    3.49716211590338
C         0.07942120303585    9.79345994042462    2.87166279532916
H        -0.79353389284592   10.29891580097027    3.27748777913862
H        -0.02216873951769    9.67506700416510    1.79387772610035
H         0.98260048111546   10.36401855696966    3.08242374462832
C         1.18691817136024    7.66587200230534    3.13812506828080
C        -0.83963346854351    8.09004667915838    4.35917215258595
O        -1.76251275947646    8.81941286598986    4.62221765760251
N        -0.71255868919433    6.83032208644802    4.93317495787366
C        -1.76242786828022    6.38124506406792    5.83526027853806
H        -2.56524474735403    7.11338392955722    5.82049228148053
H        -1.36016517011359    6.27982373338629    6.84321310945498
H        -2.12305478209657    5.40753885208357    5.50371569421015
C         0.30338529008471    5.94600192939950    4.70046286965686
O         0.38664665768499    4.87909955757480    5.28351510605175
C         1.27548019031636    6.38308571285367    3.70183905758490
N         2.22162374137763    5.54472007039390    3.33251108287360
C         3.14333717953858    5.94351660688792    2.45630214952591
C         3.04963316281077    7.23508246400474    1.88588954237826
C         3.96355090690110    7.73510985064661    0.81729784034571
H         3.44423088247561    8.49916172294274    0.24503843324659
H         4.28113249435034    6.93080941773819    0.16043039193462
H         4.84529128367127    8.19671095452853    1.26014669039154
N         2.07587453577038    8.06181313496146    2.22970551932990
C         4.14540010254732    4.91747691761935    2.14646875710728
C         5.60063578353784    5.23422448973421    1.99373377055945
H         6.14885899787368    4.67824758479372    2.75876081215012
H         5.79422137831770    6.28935492191217    2.14362853053525
H         5.97080634503803    4.93120165517743    1.01398550903259
N         3.65566920498113    3.73182408017736    2.14299132667523
N         4.39351422932733    2.63830888165352    1.94102807828523
H         5.40343179951227    2.67679639102981    2.09487865593174
C         3.76691669318530    1.41893564012493    1.98219571083260
N         4.57324128431408    0.33862014036540    1.97961975338116
H         5.51482899036927    0.41378154347393    2.33409170132312
H         4.11044536869466   -0.54617019403752    2.11552425439462
S         2.12347465005137    1.29711781323452    1.87900535801201
N         4.13912295019745    3.13341993831314    4.74962627625839
O         3.54254391559446    4.10389332297219    5.20319642759655
O         3.52756043560015    2.08133571754801    4.54591069405792
O         5.32001812412160    3.20017927813752    4.47401720970974
N        -0.38296516476949    2.72608148638428    4.11274100397605
O         0.00910922331252    3.36789147625515    3.11179273603890
O         0.45733569312062    2.16281291635481    4.81030923563186
O        -1.55299536565740    2.66644754348310    4.35412688331374
C        -0.67081753506054    5.70586097722994    0.57237835372017
H        -0.65172214438652    6.73052027922634    0.18763723623681
H        -1.57974098817624    5.21435048714676    0.20041040802689
O        -0.73515631816118    5.82285834326792    1.97679243895665
H        -0.72392019691647    4.91626013292100    2.33262290723898
C         0.55546038199611    4.93205363709635    0.09995624511265
H         1.46715876674597    5.47814240179583    0.33523945317799
H         0.50664985613005    4.77838100877652   -0.97458823646127
H         0.59676166923516    3.96335392075966    0.59664086521600

