67
CSD_code = BIYRIL | q = 0 | S = 0 | Stoichiometry = C28H28N4NiO6 | MND = 4
Ni        0.43540233579463    9.61649573557838    4.21812859284042
O        -0.26711068533014   12.14022813435763    1.40841458924433
O        -2.36649482787542   12.01109046007321    3.29739077039271
O        -0.59056439841953    6.28644078022560    7.59335647101189
O        -1.40934872861188    8.09779214197779    8.65266172288778
O         5.19024931781727    8.11710843966115    4.01130103435246
O         5.14552475693879   10.36593722376851    3.94576129295293
N         0.65225716428795   10.34014652081382    2.52617088117668
N        -1.33799225337529   10.09930869446925    4.09853088959540
N         0.21764069044804    8.76211573922246    5.89011593914939
N         2.23671469598947    9.24471394242598    4.33741122078239
C        -0.29516365834384   11.30129264200135    2.28428312838409
C        -1.46300171973791   11.20216535836313    3.28273059048043
C        -2.39789645504239    9.54111069780981    4.74882718772104
C        -3.72365517169877    9.79606195878437    4.34100888311118
H        -3.89161082883795   10.50863028150314    3.55119430254075
C        -4.79110738101955    9.14962873568103    4.90760198711655
H        -5.78985666700795    9.36382411155749    4.55776540782388
C        -4.59454530211037    8.20193862886095    5.91209015865793
H        -5.43404615900112    7.67242684829915    6.33526388625112
C        -3.32182606016505    7.94498000929438    6.34786530295644
H        -3.17514241257866    7.18933822314743    7.10295893597506
C        -2.20063013168894    8.61176479296756    5.81419023860670
C        -0.90504602717373    8.33329670434364    6.37215610787661
C         1.51349373866579    8.41250358268283    6.48309193208550
H         1.69339063580219    7.35040337570744    6.25667704695459
C         1.69107745844796    8.62206233223461    7.99314269202320
H         1.01563930331019    7.99327469895626    8.56441735891638
H         2.70457719749775    8.29370669458710    8.23994007623084
C         1.52933568156664   10.08466454438517    8.38693413943172
H         1.61723032949851   10.18583304936928    9.46973515364096
H         0.53935459687860   10.43994126469419    8.09345395429676
C         2.60524804284342   10.90996991216046    7.69213814570621
H         3.59139263031219   10.58014354387530    8.02936968268556
H         2.49820169898147   11.96557159109271    7.94553911154452
C         2.49156778609991   10.73802246597031    6.18459616031439
H         3.27512896275201   11.29710141141435    5.66875584081431
H         1.51852842418468   11.13363117952909    5.84401729771277
C         2.56915285541175    9.26147435821542    5.74889394615475
H         3.57048128570754    8.85781793935661    5.94290957659750
C         3.15326116585371    9.28191948412941    3.43201518838699
C         2.88043581930879    9.49109233621763    2.03999993225242
C         3.87199963848133    9.20172528427355    1.08749485138310
H         4.80215658500069    8.76429224688033    1.41972032379853
C         3.66191942828730    9.43055295989708   -0.24823344543007
H         4.42825056973681    9.19522412592282   -0.97027650617810
C         2.44139303963839    9.96212733235094   -0.66497881080104
H         2.26516315908312   10.13604561490721   -1.71598275643492
C         1.45535009479040   10.26158969496828    0.24228341802180
H         0.51972567305669   10.67255960674944   -0.09873199420737
C         1.63609261838552   10.04423352246206    1.62068647920673
C        -0.93959253205545    7.43750928549897    7.59635217885028
C        -1.52905302185279    7.37697487385379    9.88458182999180
H        -1.47823476074024    8.14315176071561   10.66044231145723
H        -0.68061507316100    6.69033317840094    9.97922501078160
C        -2.83812947054112    6.60639186551491    9.95939502500555
H        -2.93656570567417    6.15844640724879   10.94398754371703
H        -2.85254157252380    5.81396643687859    9.21456028340857
H        -3.67800440981171    7.27556054988849    9.78821560844450
C         4.61267354900497    9.15492226801850    3.82732952113379
C         6.52379495951109   10.44683105298166    4.32991050928589
H         6.87149483454853   11.40006858308706    3.92862996960506
H         7.06978425720750    9.62084631323145    3.86388032808383
C         6.67511399793984   10.39623468904639    5.84288954842988
H         7.71900872566594   10.53672413023484    6.10707534520184
H         6.34729851930334    9.43056840334391    6.22097890965672
H         6.08386919033649   11.18174924387884    6.30795775994876

