38
CSD_code = BIYREH | q = -1 | S = 0 | Stoichiometry = C8H18ClO7RuS3(1-) | MND = 6
Ru        5.83791743749216   10.41164055972108    4.20264806419766
Cl        5.14339933900176    8.62745342349686    2.85243009603039
O         7.14560168947543   11.13531431436514    2.74314083747365
O         7.57989627379797    9.41228437885133    4.79163929971716
O         9.74484273795621    9.39405759195330    4.36456595483647
O         9.24614050056754   10.95608719115570    2.08360937614352
C         8.60407555359438    9.72725081432213    4.07555160950956
C         8.33883421602867   10.65692352716006    2.84366333925337
S         6.65324035915619   11.99123041863259    5.59588500887711
S         4.55477309643353    9.42271106841928    5.75836137439923
S         4.20758862665786   11.67230210229105    3.31025970027645
O         5.76614248201461   13.10699394568848    5.92055496577529
O         4.44383840156832   10.03363322685387    7.08163332303993
O         2.86193950356859   11.73347220840472    3.87731594476813
C         7.22495727131074   11.30650227804583    7.17847713578819
H         7.68458308943107   12.09630908043001    7.76072820208977
H         7.92430298250174   10.51036507063941    6.94676867215448
H         6.34419780348540   10.91417614338160    7.67759852494606
C         8.23625987769171   12.77836103370306    5.12583880207707
H         8.12870687174524   13.18592487025358    4.12606969006345
H         9.01992707507171   12.02974714316143    5.13516370159549
H         8.43043216704629   13.57055361906873    5.84019886481010
C         2.86770151869259    8.95758921561336    5.26287329961781
H         2.40284447186951    8.41446553435613    6.07679382855522
H         2.95944917803398    8.36202847691207    4.36117035251318
H         2.33999247009359    9.88306272945091    5.05410891594595
C         5.19652913219270    7.74301397860580    6.03962038912830
H         6.25313486410757    7.85019320816354    6.26694565049011
H         5.07600217739535    7.19786677862732    5.11014183447428
H         4.66054897633968    7.28622053397393    6.86349574311510
C         4.00973599034813   11.28290637227678    1.54280227446939
H         3.57956026453270   10.28886005947880    1.47537111340373
H         5.01147579536595   11.27703480395417    1.12491921645316
H         3.37051899235878   12.02237612148700    1.07475460411424
C         4.76249579595474   13.38645927564757    3.07065729202622
H         4.01700903940848   13.92994703746776    2.50203104969694
H         5.71110877967257   13.32756784983745    2.54725665982328
H         4.89119519802761   13.81941401421540    4.05745528837159

