72
CSD_code = BIYSIM | q = 0 | S = 0 | Stoichiometry = C24H36BMoN6O2PS | MND = 6
Mo        1.76540706654490    0.40922780182110    6.28995105051837
O         2.02797748006437    0.34417336640273    4.67460289431638
N         1.59575526655760    0.35855623578029    8.47827456368968
N         0.79984214142369   -0.59218469246346    9.01648210479198
B         0.24707689844601   -1.74167789289518    8.16188418156135
N         1.45115922684419   -2.36858796791095    7.45405232444465
N         2.24849578666893   -1.58349152937429    6.71144455152378
C         3.17452126843159   -2.35165213448757    6.14624055957038
C         2.97163771091750   -3.67599039920011    6.54701240337868
C         1.87132177350559   -3.64927798496485    7.38307031362242
C         1.22238529716206   -4.77103785270947    8.11125431236591
C         4.20218652860086   -1.78819566671247    5.23480843960137
N        -0.66868566312711   -1.15044657170846    7.08717865878570
N        -0.17606376581125   -0.28877976209904    6.17393701122188
C        -1.11610015341815   -0.09020487401799    5.24874023810542
C        -2.25439696053275   -0.82605173809450    5.59435171280142
C        -1.94141432099014   -1.47922525922259    6.76756140660590
C        -2.79660292545906   -2.37279349982019    7.59238312297612
C        -0.90812406192080    0.76238899158904    4.05052313594952
C         0.65585426995618   -0.39190925094260   10.33708317170590
C         1.39729772931578    0.72655966761869   10.67048120867401
C         1.97324576897080    1.16318540768536    9.47734304082424
C         2.85967290938043    2.34241169661288    9.31381337622422
C        -0.17578856513432   -1.24475174964643   11.22544871742912
O         3.97251898360161    1.12828817145962    6.66480830246920
P         4.54443225825857    2.20442619937606    5.80572431676229
C         6.31987331306630    1.84939680132550    5.53138144306774
C         3.81133407635951    2.41451090670707    4.15551585094720
C         4.46290299972215    3.86465728989792    6.56818146278028
S         1.08733703418932    2.76820082243923    6.45547943675722
C        -0.65382821008954    2.83966965044996    6.67276010138615
C        -1.41119354403605    3.70132632832733    5.88095316746189
C        -2.78192114120082    3.76918081121728    6.03606724100082
C        -3.41899827696552    2.98475381177630    6.98430561860462
C        -2.66744602691507    2.15094869452549    7.79598881479861
C        -1.29526233301283    2.08741048129769    7.65309750556311
H         3.55093010622312   -4.53267606542323    6.26728974693032
H        -3.18061655959177   -0.86303531801552    5.05805919392344
H        -3.78949228711885   -2.42474155975641    7.15431775911779
H        -2.87958531146822   -1.99568233099096    8.61020032432434
H        -2.37903270679322   -3.37761740761020    7.63809247527222
H        -1.41684976807340    0.32930585628461    3.19262589168894
H        -1.30287548870067    1.76420417979880    4.21734656723063
H         0.16116949614757    0.83429206333230    3.84693169052326
H         1.50605587351764    1.16989207382665   11.63947506047283
H         3.07363968228894    2.77704980784545   10.28756675896708
H         3.79090215413143    2.04800671700112    8.83234976261626
H         2.36840492146424    3.08836826367618    8.68647579133012
H        -0.15868925492085   -0.83946791804434   12.23375349847052
H         0.20398205816376   -2.26470037077977   11.24842705024457
H        -1.20534675644729   -1.27566182696285   10.87390109630456
H         6.80796456321997    2.66330760800068    5.00571962277460
H         6.79583247258896    1.69809330100020    6.49778105841848
H         6.40493682405992    0.93419952028691    4.94926239800240
H         4.37041411743760    3.15513059927706    3.59025560289041
H         3.81271455247323    1.45650512085200    3.63770454550854
H         2.77544017877185    2.73398612980390    4.28472093969234
H         4.94370747644484    4.59453816971789    5.92437892830420
H         4.95454627046002    3.85118853099530    7.53789166415826
H         3.41264593180199    4.12470628757950    6.69399662545866
H        -0.90693421477317    4.30606956825590    5.14139219669306
H        -3.35897713498316    4.43558019443809    5.41051566584239
H        -4.49214232235518    3.03086116517559    7.09748597356134
H        -3.15356057290130    1.54805355069270    8.55060367681806
H        -0.71444737878680    1.45527168431172    8.31157045682232
H        -0.32344940951455   -2.53140576066365    8.82503938921660
H         4.71300379076203   -2.58276711994780    4.69695660004177
H         4.93002284413604   -1.20819898503508    5.80251871323794
H         3.70825211109810   -1.11746274127133    4.52912792833647
H         1.75763603966952   -5.69424060721569    7.90682390485681
H         1.22846226053620   -4.58949673118724    9.18483104843206
H         0.18692560147800   -4.88616995932240    7.79452463083410

