81
CSD_code = BIYTEI | q = 0 | S = 0 | Stoichiometry = C22H46FeN2O4P4Si2 | MND = 5
Fe        2.22718038807263    4.45723442095560    3.67007709820800
C         0.74504590894349    4.25264895945791    2.75140627308435
O        -0.28045835579180    4.17009533365587    2.23107586998410
C         1.61297861133565    3.01301033032642    4.46732685369903
O         1.08345124510306    2.10869721261995    4.94572895901108
C         1.98736704550325    6.10817980612328    3.11221592661655
O         1.68483912696180    7.15436088894807    2.73464323620445
C         2.91342809866938    5.04674210147047    5.19483225234032
O         3.28212495151421    5.45292041061956    6.20497515661486
P         3.93688397615611    3.68193241345395    2.40218277601298
P         5.73480413607689    4.77987125380509    1.63094740007683
P         6.89174593376458    3.68367627985386    3.14576233754745
P         5.43077765881378    2.06695863477118    2.84314495453458
Si        3.20618185480532    2.85014928832587    0.41279615941049
C         4.64479193386121    2.06345197220886   -0.56475934086859
C         1.87601183148811    1.53896813102081    0.81333792517262
C         2.45361818722817    4.29871416781459   -0.57915901743610
Si        8.67041184945501    2.96991279653942    1.92320087837118
C         9.89911829239839    4.43287371601019    1.88750960843099
C         8.28124798228574    2.43741621558321    0.12876069513380
C         9.43946594186250    1.50045088944772    2.87046005825270
N         5.69005751930782    6.35561891582215    2.21952389519254
C         5.88421344769901    6.68923127158675    3.62743403103369
C         7.33826770814965    7.03837628408056    3.94314135897205
C         4.95427251495826    7.80429476919399    4.10279675980274
C         5.82742090146013    7.42449106504845    1.22819265883116
C         7.11068408204045    7.29410221659999    0.40837928630588
C         4.60809561918735    7.43830934017332    0.31173996011462
N         5.13450525847908    1.48700559853488    4.39491926203489
C         4.99463027459099    0.03610681372753    4.53323034115652
C         6.22217923541469   -0.71915064349845    4.02538309971721
C         3.74228430998362   -0.43649188673220    3.80085245625569
C         5.37006417713931    2.27770483321085    5.59925551667401
C         6.75049645784764    2.01771905628183    6.20119040882320
C         4.28228475513076    2.08183610320701    6.65393462883418
H         5.05558846256799    1.20890797083985   -0.03546748318298
H         5.44533256365560    2.78083306683540   -0.71480236344437
H         4.30736543740009    1.72525639183828   -1.53920816646711
H         0.90292523631736    2.00229313465875    0.93592900150457
H         2.10292518848648    1.00618981818932    1.73175887003588
H         1.79356242575807    0.81122064089002    0.01326674556293
H         1.99942132347871    5.02958614470034    0.08489916085638
H         1.68384569529535    3.93808027643374   -1.25281074531106
H         3.20094856941823    4.81047324417511   -1.17680193727939
H         9.48388498819019    5.28323933486756    1.35550551501114
H        10.81935096028038    4.14708018993958    1.38926891841814
H        10.15358767705989    4.75959613400332    2.89126760680817
H         7.82427197861185    3.25192044591572   -0.42601292428586
H         7.59785382178074    1.59437120781962    0.10907841186359
H         9.18835760384385    2.14675670312805   -0.39213982837131
H         9.69655672434304    1.77990311069728    3.88760096521935
H        10.34668342838805    1.16295409569461    2.38095028958324
H         8.75419419841765    0.66033915578060    2.91929004477054
H         5.61553663481542    5.77845187146621    4.18168805075409
H         7.45648377329573    7.18875190729338    5.01322823187100
H         7.63730354839152    7.94978464087031    3.43000994185528
H         7.99375106611851    6.22644016097060    3.63023445866174
H         4.92133497618336    7.80342815507447    5.18945886223846
H         3.94775698647371    7.64700109221834    3.72953687164545
H         5.29884777640813    8.78370000730493    3.77832668912025
H         5.86177662347298    8.37011755777416    1.77470033072610
H         7.98085118582372    7.28246854007494    1.06022937003107
H         7.20268326847015    8.12788768956246   -0.28371437284950
H         7.09148715670660    6.36616662083825   -0.16189881700552
H         4.66968567761684    8.26088700014005   -0.39649671094292
H         3.69837676739590    7.54529514872284    0.89654128414042
H         4.55737117770722    6.50036616218403   -0.23829369401899
H         4.87336770723180   -0.17608932410450    5.59829170063832
H         7.11838815309123   -0.38544703936698    4.54232294256290
H         6.34749358120594   -0.53963964588664    2.95810656636670
H         6.10099436508260   -1.78766504654095    4.18766603760066
H         2.87120864399893    0.10756696525182    4.15769713851467
H         3.58247615649643   -1.49961932739084    3.96325016683313
H         3.85551357847779   -0.25727776838760    2.73239001685505
H         5.32449751985374    3.32613252880594    5.27098509090455
H         6.92392328121116    2.69760672598905    7.03145581510741
H         7.52181232808630    2.18130076622298    5.44918741264762
H         6.82681071577969    0.99634569454033    6.56769473963124
H         4.33721199677227    2.89022570436038    7.37875120371703
H         4.40242641474247    1.14254568732597    7.18924508535387
H         3.29899979585010    2.09934749798473    6.19499378157944

