21
CSD_code = BIYTUY | q = -1 | S = 0 | Stoichiometry = C4H6Br2CoN4O4(1-) | MND = 6
Co        6.97739913879216    1.55761920920311    4.82479049563398
Br        8.04296118784668    3.12496093029662    6.29215427939961
Br        5.91079557726460   -0.00941186891367    3.35758198266305
C         8.71282349775286   -0.31238434105716    5.56544691317485
C         9.29489975938670    0.33689502967356    4.45032994135257
C         4.66226582847962    2.78222948640074    5.20268681332262
C         5.24381960091966    3.43068385389476    4.08689598076404
N         7.54844109159840    0.14046635460085    5.92389802193566
N         8.59953474748619    1.28890535068490    3.93497619690082
N         5.35592961182284    1.82752442605513    5.71557293293054
N         6.40636840468410    2.97509368926353    3.72597785837826
O         6.90222019530415   -0.34830024637010    6.91253800718053
O         9.09094684725238    1.95662344082728    2.86508454621226
O         4.86435115339612    1.16017709654844    6.78567905179472
O         7.05100402214719    3.46205710970888    2.73534669492287
H         9.18979939869529   -1.12866991592888    6.09180185685033
H        10.26124620432903    0.06221189029692    4.04666918088365
H         3.69784596625491    3.05965323745209    5.60962902644958
H         4.76748415883003    4.24799613482610    3.56159301998039
H         5.59319652207438    0.45753505159200    7.00310179131304
H         8.36026708568255    2.65713408094417    2.64554540795769

