75
CSD_code = BIYVIO | q = 0 | S = 0 | Stoichiometry = C36H29F6NP2Pt | MND = 4
Pt       -2.00912343337585   -1.85803367271728    0.04911276649406
P        -2.02494174270328   -2.72534241306682   -2.09610756889570
P         0.15756694569321   -1.81365823748757   -0.74210003430222
N        -0.32419541817876   -2.44366725502778   -2.27954958869247
C        -5.09115385567596   -1.55118923797325    1.44425941928866
C        -3.63410772604006   -1.48116802297360    1.21277168510321
C        -2.56545642109056   -1.02757002035116    1.80198254728942
C        -2.17863462749884   -0.32518019066563    3.04253637736529
C         0.30273867763094   -2.41234779365119   -3.60691686688964
C         0.41745626926421   -0.99540386341372   -4.17083323371549
F        -5.79961893822012   -1.06026996147228    0.40391851135489
F        -5.49437514425893   -0.85017541604276    2.52302616720853
F        -5.53004111260563   -2.80954474566880    1.63059637275473
F        -2.61195134050055   -0.94881165750180    4.15386898535657
F        -0.84349925272137   -0.19763456969977    3.18782362278351
F        -2.67071243164784    0.93018861523957    3.09222525679147
C        -2.28675697761692   -4.37318389430688   -2.81499190288646
C        -3.51526621686021   -4.68712092864104   -3.39105953626046
C        -3.75546581767963   -5.96760942537297   -3.85408470011716
C        -2.78167373887938   -6.94636918630938   -3.73211787242656
C        -1.57320223227197   -6.64900165226343   -3.12283400509740
C        -1.33212918769444   -5.37131966339054   -2.65324672170649
C        -2.85112173627728   -1.61827906674287   -3.28869853105167
C        -3.43446338581983   -0.47838894599347   -2.74405954544659
C        -4.05814406427630    0.44944469644073   -3.55710308439709
C        -4.10666176776980    0.23936630717179   -4.92579562241901
C        -3.54093753266386   -0.90107845981762   -5.47424798942334
C        -2.91757896287859   -1.83158898905693   -4.66228731880839
C         1.62448363265608   -3.14124117449720   -3.62644162236571
C         1.68275706300937   -4.44391329829967   -4.10993713745313
C         2.87302744389004   -5.14936030427239   -4.10013255018376
C         4.02538448535499   -4.55939032175387   -3.61015405488721
C         3.98129922755099   -3.25713711969559   -3.14391272467793
C         2.79078602144864   -2.55289319458654   -3.15527788120438
C         1.57792969053625   -2.75199130577603   -0.11488093545122
C         2.19766957892841   -2.21461847896535    1.01348870115094
C         3.22319086583271   -2.89899628546150    1.63600818823361
C         3.62558590751585   -4.13454311673407    1.15173926475282
C         2.98140334920885   -4.69254315946918    0.06064577489082
C         1.95176899433856   -4.01132534997688   -0.56323429931636
C         0.80477240737349   -0.13208827204129   -1.01819072986598
C         2.14218637266454    0.24520061613849   -1.01540125623884
C         2.48153965343277    1.56991385946429   -1.23411160085329
C         1.49655701404742    2.52034309271918   -1.44677612384015
C         0.15945312904156    2.15328263462725   -1.42145835532665
C        -0.18157497119249    0.83403513132622   -1.19945821953114
H         0.78670176968208   -4.91145427371447   -4.49453075280105
H         2.89971273040324   -6.16125278623049   -4.47685574843878
H         4.95425159789020   -5.10960001164462   -3.59807569431533
H         4.87804577483825   -2.78692321371457   -2.76830014973089
H         2.77177312266985   -1.53720662155536   -2.79494639601000
H        -4.27833604477497   -3.92530640253119   -3.47105372016086
H        -4.70636800919396   -6.20507720330083   -4.30741314089906
H        -2.97056893112356   -7.94422604863479   -4.09878795735083
H        -0.82175211995319   -7.41621935872352   -3.00604472995957
H        -0.40389229256460   -5.13651060836547   -2.15363221088266
H        -3.41097022675484   -0.34544399225940   -1.66304297647924
H        -4.51329798483741    1.32789111912182   -3.12548941123104
H        -4.59439443312304    0.95880967141226   -5.56633517003240
H        -3.58994881372114   -1.06860571065474   -6.54017830560843
H        -2.49440496350781   -2.72577763374825   -5.09829486295017
H         1.85821373681933   -1.26291946640224    1.40156547571984
H         3.70478015095359   -2.47436798190135    2.50423097022008
H         4.42943934402740   -4.66848003041887    1.63615589367388
H         3.27674209118872   -5.66488535889532   -0.30515925345476
H         1.44678273553734   -4.45576232378041   -1.40599352762159
H         2.91557391332020   -0.48617298111107   -0.82708342006844
H         3.52149682932788    1.86201192454477   -1.23250648541783
H         1.77070367076225    3.55087545486079   -1.61548919845889
H        -0.61018360957830    2.89725540337729   -1.56135494721130
H        -1.22397289722945    0.52637149494470   -1.14304385473300
H        -0.39087215752999   -2.97370869135505   -4.24889316907835
H         0.78339337069824   -1.04300639242890   -5.19418704698403
H        -0.55689687884977   -0.51226246359728   -4.16663935210053
H         1.10007983149561   -0.38844181495792   -3.58512288468835

