91
CSD_code = BIYXIR | q = 1 | S = 0 | Stoichiometry = C46H40CuN2P2(1+) | MND = 4
Cu        2.93221023183035    3.86556821611418    3.91574960440408
P         0.85026312185826    4.78550704978040    3.70922174290245
P         3.12671844417617    1.59024753617203    3.53347336313589
N         3.86604559296565    4.35205657886137    5.66471553920502
N         4.15890305967008    4.46782522135802    2.33969407991947
C         4.14980672763580    5.61734301487430    5.95652790131799
C         4.77806560072702    5.98814649713127    7.13267514794296
C         5.12656918848287    5.00099010190765    8.04241712024539
C         4.82653604180542    3.68173633412383    7.73713711122571
C         4.19448939966803    3.40603015961593    6.53774094489750
C         3.61513264121068    4.52012252972498    1.12844057951860
C         4.35648962130342    4.38924177721760   -0.03243695098023
C         5.72317501339499    4.18658257759754    0.07166433897032
C         6.29480665075476    4.14799106125379    1.33507600794326
C         5.47355423269735    4.29725946536162    2.43732128955755
C        -0.30887968370814    4.49509605251375    5.08462013340516
C         0.25138824991633    4.47088696591203    6.35947060403085
C        -0.54564975280877    4.26853431800664    7.46976574483910
C        -1.91061236231227    4.08467477073258    7.31323035197570
C        -2.47312675729138    4.11227969149828    6.04762254137695
C        -1.67946753136561    4.31830825651555    4.93267292133427
C         0.86970089725134    6.60719571382928    3.62780705818677
C        -0.24434467671124    7.37686564671408    3.94682100785579
C        -0.17446689777702    8.75514017124819    3.85771323467023
C         0.99930371238104    9.37127275845208    3.45268107582973
C         2.11107074602402    8.60771516008924    3.13581331659783
C         2.04844561206287    7.22880609459905    3.22607035097775
C        -0.11348592537950    4.33614455162559    2.23288414400213
C        -0.18634966239342    5.17289251258972    1.12329821549692
C        -0.83803171191779    4.74803857813974   -0.02136067401935
C        -1.41084280707115    3.48772740608477   -0.07227985558540
C        -1.33084173943526    2.64578720933772    1.02627947336849
C        -0.67802528772121    3.06213687210525    2.17147494593755
C         1.53170492565488    0.78935299293765    3.88532986792748
C         0.84816532645277    1.25416920587137    5.00648793136881
C        -0.38565649745282    0.72773320738280    5.34100693606713
C        -0.94434746700459   -0.26592451751516    4.55246492886720
C        -0.26411975189184   -0.73632901316293    3.43956198579582
C         0.97215155561091   -0.21466678546658    3.10175487247993
C         4.32762456936157    0.47838051431820    4.33804787552596
C         3.98681981916658   -0.75959900838490    4.87018443779963
C         4.95667408762461   -1.53289040830070    5.48453308634454
C         6.26232249292121   -1.07899366654643    5.57466871565228
C         6.60415381920057    0.15982249355202    5.05444110106433
C         5.63937563788945    0.93920253634447    4.44568730565254
C         3.38493366736542    1.25677548797716    1.76401132855036
C         2.38609614699845    1.68814066003966    0.89205032064482
C         2.54751497536567    1.55563122139815   -0.47288281711433
C         3.71859538817624    1.01580432070073   -0.98174462571552
C         4.72202179874151    0.60559596234112   -0.11992187065700
C         4.56181964745353    0.72567584257418    1.24968145104166
H         3.85354631974643    6.35469916684913    5.22372812183470
H         4.98744084636113    7.02705890910159    7.33012204800315
H         5.61832807485010    5.25413156809854    8.96901512481205
H         5.07568439585404    2.88049895999862    8.41392416126386
H         3.93947593487856    2.39025767715291    6.26184005505195
H         2.54498073635945    4.68060569961503    1.09503980480962
H         3.87141018064867    4.44092135627697   -0.99344895376181
H         6.33238109572521    4.07076974057647   -0.81136321250701
H         7.35642450771948    4.00812091190101    1.46175177588465
H         5.87493556619001    4.29319146214875    3.44241265037637
H         1.32028706283855    4.61240619700773    6.46629385389348
H        -0.10585132378174    4.25077988261423    8.45598487051817
H        -2.53566204811002    3.92122483648072    8.17786185502397
H        -3.53733367941944    3.97511347750563    5.92708395813153
H        -2.12702317756363    4.34033374533036    3.94919219407681
H        -1.15960904470365    6.89784955298055    4.26401284505013
H        -1.03936188555945    9.35211329208012    4.10448860055074
H         1.04738297748162   10.44730318577850    3.38514300435836
H         3.02557560942013    9.08758369948032    2.81962276089128
H         2.90922769552443    6.61900572478653    2.97985391058301
H         0.25637608476150    6.15905991225379    1.16052696855414
H        -0.90040839075974    5.40510597434396   -0.87588149959661
H        -1.92035327532999    3.16176512706422   -0.96610331351113
H        -1.77282215863638    1.66120690634058    0.99053634874694
H        -0.60978791859274    2.40680921179604    3.02924150366367
H         1.29044702973412    2.04066816593722    5.60617887452427
H        -0.91330929690792    1.09956581462641    6.20673643212077
H        -1.91107351343940   -0.67417960212305    4.80463348603225
H        -0.69961403961332   -1.51480077371498    2.83113820771906
H         1.49960450799822   -0.58103113474533    2.23228627583264
H         2.96945129022129   -1.11680753383510    4.80462110246017
H         4.69079555574691   -2.49582670540448    5.89367622432303
H         7.01366746060839   -1.68865056120189    6.05254017608166
H         7.62092357115769    0.51547114188507    5.12567797030095
H         5.89016808083344    1.91290160479189    4.04372652854427
H         1.47724794279502    2.11472359352509    1.29643838907268
H         1.76062125870529    1.87715091439595   -1.13908108499716
H         3.84794903009000    0.91293830008159   -2.04831092222966
H         5.63406881076077    0.18399508718853   -0.51503937571457
H         5.34640799385908    0.39553361389732    1.91563303745070

