57
CSD_code = BIYZUF | q = 0 | S = 0 | Stoichiometry = C18H22N8O8Zn | MND = 6
Zn        6.55692092229885   -0.00070895686050   12.63339405275112
O         8.24715008991423    0.42207150137852   11.79366304889830
O         9.49335348807169    1.02659923544243   13.53460578171174
C        12.81375496902306    0.56829782529605    9.85099051285038
N        13.93172163931003    0.51159506560051    9.01208006601788
C        10.56409607742978    0.65921787361778   11.45932120464229
N        13.85387445615599    0.14622869819861    7.72177025651017
C        11.80249123505136    1.03429875264848   11.96788521061642
H        11.86463363726030    1.35965025037138   12.99498560858598
N        15.90953253365013    0.57660849921644    8.14087547009414
C        11.57797287198197    0.18961538089312    9.33267821779938
H        11.52117568588920   -0.13388403208228    8.30530409496411
C        12.92927664049251    0.99235379390703   11.17095907960242
H        13.88449356296093    1.28907600471643   11.57491274629445
C         9.34987381022353    0.70977347411953   12.34340310633024
C        15.24452187169691    0.77700231543173    9.24546237146476
H        15.66354100808398    1.09341851028521   10.17491365417079
C        10.45948206082056    0.23669476021454   10.13822072149626
H         9.49182557569178   -0.05208883797634    9.75949170246066
N        15.01632998604951    0.19172296247301    7.23446990550358
O         7.34197108275974   -1.76796143111343   13.65275089800249
C         8.61882216111528   -2.35228871763869   13.44223027221548
H         9.36087998201247   -1.61713892581923   13.74609857932395
H         8.77564850803908   -2.60142482383649   12.39087911615359
H         8.72805836289134   -3.24962007825369   14.05655104933914
O         7.04541678444983    1.17357325344627   14.27354702659637
H         6.88354561096488    0.68748408741229   15.08666800318969
H         8.05119063173052    1.19104236137569   14.15329647304638
H         6.66899973335090   -2.41894368069344   13.42227446774049
O         4.86669580319595   -0.42457532653294   13.47336767193994
O         3.61948650580398   -1.02844595102768   11.73287909422424
C         0.30177081171083   -0.56734471936842   15.41902178375876
N        -0.81530305319303   -0.50961989845835   16.25904259412729
C         2.54991406724630   -0.66022297892743   13.80874034578494
N        -0.73589474337111   -0.14296732449259   17.54889900769034
C         1.31103508580804   -1.03568411941168   13.30166012676297
H         1.24789368374326   -1.36203327196730   12.27493681923241
N        -2.79210866964365   -0.57337632687258   17.13260457272790
C         1.53805848274158   -0.18825624377812   15.93582314603389
H         1.59583578692861    0.13632608663318   16.96279761296559
C         0.18498128775267   -0.99275842025187   14.09960000692314
H        -0.77065464846038   -1.28978086695782   13.69685300251820
C         3.76358366077479   -0.71152161619002   12.92394035462567
C        -2.12841941501903   -0.77499151230240   16.02744075409971
H        -2.54855255569384   -1.09223815902914   15.09877692722718
C         2.65577158827620   -0.23634438904715   15.12930730834253
H         3.62382850728065    0.05268625769989   15.50683330296327
N        -1.89779020212553   -0.18773190711926   18.03758290129958
O         5.77059084383401    1.77079715163664   11.62156292449359
C         4.49252527757433    2.35018859919561   11.83863468909647
H         3.75191760286201    1.61797052665714   11.52428108212680
H         4.33432406161090    2.58490254267772   12.89310928060045
H         4.38241596502505    3.25551598640805   11.23634707380505
O         6.06750863839906   -1.17375486673458   10.99384338615612
H         6.22964438124928   -0.68809465291336   10.18051822365123
H         5.06170158313569   -1.19173520056245   11.11383670910518
H         6.44188468315092    2.42082547930395   11.85947659936294

