70
CSD_code = BIZBES | q = 0 | S = 0 | Stoichiometry = C29H34ClMnN2O3 | MND = 6
Mn       10.46537396685919    2.42674133017204    2.36531159896011
Cl        8.40084021330078    1.82054366859476    1.81435390674888
O         9.87176304870169    3.97897116064040    2.95802711636711
O        10.61479436012659    1.37408741145259    3.76024047569405
O        12.57866498764269    3.18335517270158    2.98206765378836
H        12.47732350143920    3.85040866340295    3.67445558579457
N        10.86232187787053    3.26424543041160    0.63133573462842
N        11.14083382897694    0.80936249899099    1.29254097827080
C        10.00686764721029    5.21901625264957    2.66358854088903
C         9.59980396413567    6.26825629613769    3.55206645930440
C         9.77142858766706    7.56714623476983    3.14628968328150
H         9.47732583235919    8.37733491491867    3.79284324108970
C        10.31768078288148    7.90397633503101    1.89723504577075
H        10.42139865937684    8.94491749652477    1.63145193605467
C        10.70255945809896    6.92422114020818    1.03279640097614
H        11.11260385823121    7.16982654287970    0.06365896260876
C        10.56694658725360    5.56353797678945    1.38469831893565
C        10.96654533896433    4.56923274045114    0.47472669860729
H        11.41321748366779    4.93902657789264   -0.44622809732098
C        11.22615026292434    2.42557038088280   -0.41010177663659
C        11.37583905259830    2.78531275186875   -1.75096965693998
H        11.12464231782017    3.78060290230566   -2.08349508355351
C        11.82379453707548    1.86125105502318   -2.67264096697509
H        11.93759609016146    2.15002128363119   -3.70635696992406
C        12.13663828882035    0.56742233176443   -2.27616279802801
H        12.51573821620324   -0.14077713362138   -2.99707742195472
C        11.94629604065473    0.17512707949862   -0.96733217723965
H        12.19479788926279   -0.83446690179824   -0.67771606119167
C        11.44607130317718    1.08047836162649   -0.02919969149312
C        10.97490121713316   -0.42833576163928    1.69206547378878
H        11.03542406157437   -1.22837005516127    0.95625292391024
C        10.69109418068876   -0.84030284064205    3.01151750081540
C        10.60901999271842   -2.21381436583414    3.31111146166708
H        10.80407972181884   -2.92947690106809    2.52568554004616
C        10.29121562641800   -2.62658426187271    4.57234327032276
H        10.22924876494332   -3.67793341406741    4.80825859949028
C        10.02216630193816   -1.68272170494763    5.57184794923041
H         9.74781493662059   -2.05434330339608    6.54523955961954
C        10.09001553255914   -0.32764348304025    5.34959562360943
C        10.45432959653129    0.12468595606223    4.04466253687739
C         8.99209243547137    5.89996617760805    4.89787175736893
C         8.63563617028914    7.12975178097306    5.73921452087429
H         9.51760077112779    7.72725863459584    5.96118853045538
H         8.20456592381122    6.80264303408751    6.68331727438549
H         7.89971716927349    7.75106948028752    5.23486393411502
C         7.70604000226032    5.09655738507322    4.65805551756682
H         7.27232871206947    4.78978834562291    5.60743876650804
H         7.89761020774376    4.20642553232921    4.06472549857228
H         6.97941742635485    5.70745171678995    4.12635153033448
C        10.00262065128158    5.06195580909499    5.69392473017113
H        10.93304522646042    5.61442568871931    5.82560879891806
H        10.21084163162559    4.12701461182328    5.18126898651380
H         9.60023768095533    4.82696611531959    6.67679914073703
C         9.76091959154008    0.69595898012895    6.42663019464949
C         8.58514347414580    1.55430529813078    5.94090531773846
H         7.70470699691127    0.93193092324764    5.79690895040521
H         8.80769377701010    2.03622836142228    4.99186872791731
H         8.35203832776031    2.32342736537247    6.67406338018239
C         9.35526280364703    0.04874706659413    7.75466731118779
H        10.16230762778025   -0.55449958354706    8.16511583161406
H         8.46968450694520   -0.57018732173522    7.63456584112945
H         9.12163223480669    0.83063380932737    8.47460912124396
C        10.99743991804676    1.56784995381326    6.68932131076669
H        11.82708067054580    0.95073097197099    7.03214805079192
H        10.77900085429386    2.31097949705959    7.45328927866408
H        11.30106968219610    2.08626174758444    5.78402170799199
C        13.64927339705483    2.32399051001443    3.33271318598653
H        14.57413705554930    2.89680650276410    3.44896877371107
H        13.76553779001739    1.61536349864713    2.51403781711435
H        13.44084936662460    1.77388828669556    4.25504813649601

