79
CSD_code = BIZHIC | q = 0 | S = 0 | Stoichiometry = C34H34N4NiO6 | MND = 6
Ni        8.76799032698089    0.00002819741540   11.40699507042638
O        11.72647444179643    4.25559140076062   11.12751719150343
H        11.11393743515286    3.68141551232151   11.65510317054522
O         9.42025434730470    1.00036823021781    9.96508533556446
N         9.94185934454739    2.44704290364182   11.63366503660914
N         9.22270272198399    1.60500644065997   12.42061419766147
C        11.53888851300420    3.95947603216085    9.83397021533252
C        10.68016762638940    2.93012717660065    9.40748354981374
C        10.51237967493237    2.69879117555856    8.04226503663164
H         9.82060136191792    1.92843607824117    7.73580051196741
C        11.19417933365589    3.44530385958728    7.10578549393823
H        11.04901277513993    3.25572223461396    6.05320336916617
C        12.06526336642557    4.44046428775277    7.52931086645557
H        12.60940463448711    5.02663108658905    6.80344810611797
C        12.23429717053258    4.69623172618156    8.87408815720324
H        12.89860439595340    5.47429060483588    9.21642547756889
C         9.97092129492213    2.07055566125033   10.36797294150753
C         9.05587367593995    2.01806725356230   13.63896286249661
H         9.54831597120765    2.95195522465109   13.91532631128548
C         8.23400104408184    1.37921956325335   14.60258514271366
H         7.73813175050626    0.47774367622046   14.28010472531882
C         8.07258142487964    1.85316193385031   15.85574279373411
H         8.62757525421173    2.73529990514254   16.15466976767387
C         7.22608889032167    1.27686992018566   16.87649304004333
C         6.27915348757367    0.28314623563333   16.60494904896339
H         6.14237930412101   -0.07179093181339   15.59574434348434
C         5.50197027999872   -0.24627524907413   17.61507398389482
H         4.77756809744274   -1.01376764983635   17.38363745368984
C         5.64483864264009    0.20255206653296   18.91889584987691
H         5.03641699450622   -0.21534915543443   19.70714101838146
C         6.56843944776671    1.19590099513929   19.20374722822289
H         6.68030381719686    1.55491318371799   20.21653808355183
C         7.34533986453667    1.72966560913460   18.19537606389386
H         8.06559797323176    2.50263708580586   18.42421643144646
O        11.04375859089789   -0.89889404254285   11.63223411930063
H        11.14463738152343   -1.50177296269905   10.88542458346119
C        12.21603673382468   -0.11741745082659   11.74537810458656
H        13.09102322998667   -0.75359587928768   11.91105053788358
H        12.08146218579342    0.53428429595778   12.60653917156898
H        12.38265764540225    0.49930842444358   10.85591511109743
O         5.80975255823591   -4.25567851391183   11.68662845204983
H         6.42225917749633   -3.68149141805226   11.15901890119162
O         8.11585858134018   -1.00034608315778   12.84894437459261
N         7.59425565509743   -2.44705044162199   11.18039556070815
N         8.31335578948979   -1.60499433024400   10.39341548724499
C         5.99735790687326   -3.95953416833644   12.98016875464543
C         6.85604883853878   -2.93014533690972   13.40661812176254
C         7.02386088342549   -2.69877899526440   14.77183356065935
H         7.71562136857603   -1.92839578451571   15.07827081441365
C         6.34210664917663   -3.44529650860354   15.70834369787928
H         6.48728770183804   -3.25568838052870   16.76092213329182
C         5.47104653144123   -4.44049431980838   15.28485315652041
H         4.92693700518506   -5.02666320664023   16.01073918323086
C         5.30199495705559   -4.69629494606074   13.94008140934988
H         4.63770473936560   -5.47438158884830   13.59777143807668
C         7.56522955638554   -2.07056033603936   12.44609023034876
C         8.48013698072282   -2.01804884678266    9.17505913526820
H         7.98768594471081   -2.95193743964075    8.89871428524107
C         9.30193357477883   -1.37917913874950    8.21138827030528
H         9.79780992127310   -0.47769603199273    8.53383646729426
C         9.46325880834696   -1.85311353770061    6.95821875546430
H         8.90824209972669   -2.73524916713545    6.65933494613359
C        10.30965931854033   -1.27682145272756    5.93739937257463
C        11.25662570271643   -0.28311146571502    6.20886047954329
H        11.39349306184721    0.07182019097305    7.21805132507871
C        12.03372654817759    0.24629609627829    5.19867118428695
H        12.75816092832033    1.01377278210120    5.43004384018842
C        11.89074095770780   -0.20253007042587    3.89486592794468
H        12.49909859440649    0.21536025685455    3.10657038117572
C        10.96710359216806   -1.19586230152059    3.61009487912657
H        10.85514815849803   -1.55487440654258    2.59731733788582
C        10.19028637452765   -1.72961376070857    4.61853057082134
H         9.47000143048389   -2.50257462596883    4.38975406368610
O         6.49220868585101    0.89917488965961   11.18164424143020
H         6.39151154507497    1.50136050965527   11.92962090186583
C         5.32008135018236    0.11741166303977   11.06848681790678
H         4.44479930742758    0.75386623816392   10.90375075353518
H         5.45451095067626   -0.53369904925022   10.20639750572415
H         5.15400781159283   -0.50030163341416   11.95781377698235

