46
CSD_code = BIZJIF | q = 1 | S = 0 | Stoichiometry = C23H19AuClNP(1+) | MND = 2
Au        4.66458315853781    4.86999564733333   11.85760063675566
Cl        3.58424042397235    4.54841052714096    9.89897990847055
P         5.68420507215893    4.86543820473811   13.86568087636462
N         3.77459288934355    3.17463193803582   14.95282230992479
C         4.62954622483211    4.19148489319551   15.21377422036880
C         4.57330308122402    4.80786958624298   16.46096196723253
H         5.25514174049662    5.61982872871796   16.66829611657163
C         3.65549997828474    4.39912158657098   17.41186288495588
H         3.62506661626615    4.86956423217560   18.38198695242346
C         2.76319586883116    3.37918823113063   17.08846130574413
H         2.01732545035924    3.04491263092000   17.79087669353743
C         2.85374685241016    2.78813098654786   15.85128612350510
H         2.20629781233317    1.97731834119323   15.55017787135828
C         3.81739215470377    2.49355348103151   13.70072291988290
C         4.97690965504540    1.82870425998909   13.31748471449106
H         5.82042157665963    1.77924722669155   13.99052740371875
C         5.01036072700732    1.18755787699719   12.09102935804616
H         5.90712645515628    0.66915428080757   11.79016737624094
C         3.90171333249854    1.20905381215774   11.26002995971014
H         3.94082501313268    0.72660972098114   10.29686599499041
C         2.73899170333593    1.84822633726003   11.66237611128203
H         1.87819837141002    1.86776615739724   11.01447422109822
C         2.68569696657396    2.48383718247673   12.88953462788500
H         1.79305368339064    3.00635443630145   13.19951591114739
C         6.05999815042951    6.52170979794523   14.48934795670429
C         5.00771398784720    7.44086266491456   14.46846952750865
H         4.02473259576368    7.11730028547340   14.14707135493006
C         5.22950106461241    8.74964659112971   14.84726281183723
H         4.41700766390685    9.45942135414975   14.83469078272499
C         6.50268815633067    9.15264311647974   15.22585602455483
H         6.67777807255937   10.17808597347151   15.51144147931813
C         7.55244256666537    8.24838934771948   15.22230902125248
H         8.54372408253471    8.56936524080597   15.50282469434676
C         7.34030484971527    6.93190025182416   14.84983991991784
H         8.16278013424342    6.23109415804690   14.83553724230095
C         7.23817350847612    3.94902996858422   14.00438352291272
C         7.92210223154024    3.67753218138127   12.82331270561616
H         7.49172288440952    3.98129035402412   11.87748046303700
C         9.13830229771822    3.01981466205533   12.87327831274409
H         9.67353574280964    2.81151683044006   11.96006053154211
C         9.66364509409221    2.62914964725385   14.09503704624453
H        10.61023892601897    2.11314203215804   14.13328103652120
C         8.97841007981634    2.89764972104406   15.27123704696396
H         9.39235502073360    2.59251944131410   16.22012059432881
C         7.76491002056496    3.55953754209337   15.23489177730593
H         7.23119806125140    3.77483853166094   16.15126968168565

