53
CSD_code = BIZJEC | q = 0 | S = 0 | Stoichiometry = C22H25IN4Ru | MND = 9
I         9.37001768706753    9.87037897295936    5.91086484023966
Ru        8.35750857748073   10.26261457608273    8.37083516159580
N         5.02664884720299    7.96003066548094    7.00295752058754
N         8.96690146958407    8.33456957659338    8.86725606309761
N         6.91933616449755    7.74960979182466    7.99998513090554
N         8.45483077339878    6.12024770570360    8.94538126318744
C         5.87310010105507    7.06660912861094    7.53208403425328
C         6.77800920765577    9.11329804547905    7.77742452516234
C         5.57056054077342    9.21805071661137    7.14494935821687
H         5.06400454359957   10.08065940965105    6.76223088736623
C        10.04089482701673    7.69404792897296    9.41610389356009
C         8.09557399035068    7.33833520368121    8.60258266075286
C         8.25081765245207   12.50276827005930    8.14055012272456
H         8.12313736451806   13.14083491572594    7.27070326071341
C        10.60664760182399    5.38682816564795    9.99736358817492
H        10.35144226796760    4.33945146392520   10.03700775529503
C         5.70662521245063    5.60043382089916    7.58807998193407
H         4.81762217980265    5.32840150442495    8.15743619401753
H         6.58953397935011    5.18191647764697    8.06951765362410
H         5.61051795733386    5.18550974300683    6.58498676643977
C         7.27712026559122   11.25542857702004   10.02386269859115
C         9.57128310618543   12.25822677157158    8.62810216879475
C         7.12872107432084   12.04470680864087    8.84485010613846
H         6.13394291041155   12.34413216816404    8.52726052989078
C        11.27732496355855    8.14586515117543    9.86176357498802
H        11.55011030999707    9.18821380908578    9.78630854606322
C         8.58753264210096   10.95308168696765   10.45085925488589
H         8.74295081038862   10.39786490977434   11.36980898070205
C         9.70737851403601    6.30750568495940    9.47111385115021
C         6.05873736284766   10.87094667774630   10.82995217528141
H         5.19002599951865   10.89421743830497   10.15948703089995
C         3.77996140737015    7.64056107134197    6.36695057301126
H         3.95182291587645    7.02646983982774    5.48091935958074
H         3.28569915835678    8.56171942004776    6.06673540746408
H         3.13110590789567    7.09169304708518    7.05211658085847
C         5.84451796371060   11.91441487646474   11.93273381910034
H         6.69834912390985   11.93537126431132   12.60722457138763
H         4.95508041014129   11.67356161379378   12.50994859362522
H         5.72040005518925   12.90726898532915   11.50407706237859
C        12.15184845949104    7.21442546824459   10.37482197512918
H        13.12272380276083    7.53478703890815   10.72538780677674
C        11.81945972723849    5.85789582992769   10.44727442292133
H        12.54149248247506    5.16688695516708   10.85810904341019
C         9.72190596114580   11.49113448105026    9.78357739701952
H        10.70752729845958   11.34999905462391   10.21316581045207
C         6.15949960677143    9.46621955351838   11.42665252877754
H         6.46745028796365    8.74813238675426   10.66719674534824
H         5.19298658533498    9.16016951155157   11.82075710413178
H         6.87822665130274    9.43384733417080   12.24214026407469
C        10.74554764562947   12.87663429582315    7.93202006199482
H        11.68203145283852   12.56168465682276    8.38779929807834
H        10.67664718377677   13.96437970979837    7.98455555412937
H        10.76365700802751   12.59325783903792    6.87916644112173

