43
CSD_code = BIZLEB | q = 0 | S = 0 | Stoichiometry = C15H18ClCoO6S2 | MND = 8
Co        7.34358331863320    0.80078164204834   11.66737958829149
Cl        7.70716914349784   -1.30601745919174   11.84952285936638
S         7.11034386759773    0.52088085502345    9.39860149194112
S         5.05549793105021    0.55599985696329   11.91085036651049
O         4.93273300867278   -1.06117990642945    7.31999230851909
O         4.69047846781167    1.17348502780941    7.20488582728216
O         2.63719976750668    0.03357167079611    8.86319739441764
O         2.39047173806382    0.10458770161153   11.10103141815509
O         6.16358879707194   -0.26676638762155   14.36598306972315
O         5.79016622180829   -2.48116631426417   14.19775020720112
C         5.45081924859100    0.28759988139242    9.22390611881585
C         4.54084276828148    0.27530612631212   10.23433089285456
C         4.97428098002833    0.02970542147084    7.81093642022442
C         4.14911359571595    1.05421125468162    5.89321742440798
C         3.11901835251911    0.12561532452122    9.96939647399980
C         0.98706522062124   -0.01415727497501   10.92162916526513
C         4.74669788770542   -1.09242090792770   12.62855438565994
C         5.67009243936858   -1.22432213464954   13.82221058502324
C         6.69885766202011   -2.77906299437811   15.26520193550706
C         6.06179833766835   -3.79191072946570   16.19932724518952
C         8.46266196432339    2.52159031837097   11.24869103782489
C         7.38502921094891    2.85636670881660   12.08743983548940
C         7.53857693312053    2.13770766070442   13.30776543649533
C         8.69738916717581    1.34881382118630   13.21230442258293
C         9.25211712803842    1.54278122934151   11.91861008822026
H         4.07635695162091    2.06591634907163    5.50291447426500
H         4.80109911700248    0.44042950120317    5.26907197525524
H         3.16382726602228    0.58865096936464    5.95120371709691
H         0.60533859291357    0.83203056022128   10.34733327939892
H         0.75028256417784   -0.93598868167957   10.38641471734510
H         0.55386178599545   -0.02524075104329   11.91838262822523
H         3.70330227139868   -1.11516123316663   12.94470415442302
H         4.94143058718747   -1.86881390321040   11.89140888693410
H         7.60556727668761   -3.18196102320551   14.80385528590951
H         6.94364574117198   -1.84940885326690   15.78795682899841
H         5.16766611560650   -3.37625388960263   16.65781026178049
H         5.78785905934251   -4.68697560133428   15.64754040905488
H         6.76796995661193   -4.05893958503542   16.98039224426355
H         8.68404574855813    2.95734502557723   10.28830639314959
H         6.64028413926862    3.60986111169315   11.89252070621265
H         6.91256498707879    2.22740928086273   14.17895465445995
H         9.11042845327483    0.73516617198121   13.99528005085354
H        10.19067622824547    1.14293415944817   11.56643333338812

