52
CSD_code = BIZWAK | q = -1 | S = 0 | Stoichiometry = C24H21S6Zn(1-) | MND = 6
Zn       10.94525060878941    6.69321800511732   10.91907904658629
S         9.00915705591914    7.66350884378300   12.36112972862523
S        11.66840860669822    8.91037263622492   12.13107927388176
S        10.23755625327553    7.44607678263841    8.53269963632909
S         9.85193513147174    4.72987767096238    9.60823618362910
S        12.10368419881452    5.40516163040518   12.89901982731821
S        13.38437199061251    5.94724152285441   10.30219603766606
C        10.16553555479269    8.77216543996735   12.85449384480784
C         9.80887767200264    9.68766849142051   13.94787056947275
C         8.72633084229907   10.54374146153912   13.77509335173018
H         8.18051932407170   10.50892420322197   12.84379144223019
C         8.35918657152873   11.42671634751425   14.77233730574334
H         7.52122137592716   12.09245140279417   14.62242284171950
C         9.06458543338544   11.44607254391132   15.96260046826312
H         8.78271322574074   12.12961088665705   16.75167308189199
C        10.12742190722352   10.57943623933060   16.14633209667873
H        10.66619159442948   10.58645197419674   17.08445883458748
C        10.52041581597221    9.69366372294907   15.15292835809600
C        11.66482077631079    8.75649423558307   15.38082838734296
H        11.42106082381129    7.75571817234435   15.02725098254890
H        11.92086584878223    8.70831357126361   16.43731016461280
H        12.53861103841380    9.09367399369064   14.82407707844061
C         9.83647317208053    5.82972423092267    8.34511377432451
C         9.40421309874964    5.38450240860725    7.01264156109438
C         8.29411719606033    5.99462035931798    6.43739801926624
H         7.79042035683635    6.77706421466446    6.98554681231800
C         7.83903911230980    5.60352633772632    5.19296353016155
H         6.97021129678032    6.07980832657625    4.76158200904453
C         8.50625086536325    4.60670012763681    4.50316296026363
H         8.16148577265019    4.29541105641200    3.52668179000157
C         9.62508342447687    4.01461709830643    5.06187442367684
H        10.15342108329127    3.24711209775212    4.51213451334414
C        10.09139020099773    4.38390343797696    6.31573787837169
C        11.31358888777725    3.73843649693411    6.88975759731132
H        11.03286794674075    3.05418389701425    7.68980658768362
H        11.97897493528777    4.48510412926877    7.32060416968047
H        11.85158836036308    3.18157950526423    6.12520675885947
C        13.44038294330031    5.42133307043630   11.89145476463774
C        14.72391553032183    4.91178131058099   12.39460566658319
C        15.30097548351640    3.81863982830115   11.75665931809742
H        14.78923294632915    3.38095032634295   10.91215776625460
C        16.50204947253874    3.29760072562513   12.19787202164532
H        16.93562593748657    2.44279673358619   11.69868348691121
C        17.14655959757098    3.88138255088506   13.27421809125009
H        18.08948752578416    3.48479598671751   13.62481124647322
C        16.58658482714976    4.98326926117092   13.89616055355097
H        17.10172771312148    5.44665060617674   14.72702568481552
C        15.37508194143035    5.51447999455112   13.47674354177611
C        14.79689881819164    6.71599020719931   14.15655255243878
H        14.41956214039672    7.42890004785814   13.42497720227765
H        15.54375330314714    7.20537603304546   14.77848421214420
H        13.95731445967611    6.42029981477233   14.78487296353537

