57
CSD_code = BMBUFE | q = 0 | S = 0 | Stoichiometry = C23H30FeO3 | MND = 7
Fe        2.17205254780435    6.68902167551010    2.53424222185191
C         1.98410271999244    6.76836832376352    4.93939098364392
C         2.03307157703454    8.01789021595399    4.15963717854518
C         0.71209275515899    7.67975259644596    3.54593279247333
C         0.76343700415001    6.38189162315068    4.28893661549676
C         0.11851985027203    5.16806907702352    4.60572993980384
C         0.67403978177588    4.43668605797664    5.65087730627090
C         1.88931853861926    4.80998263685240    6.27461278297218
C         2.56830368384161    5.98079396181091    5.94621238933647
C         3.84074662852901    6.33594654253972    6.66237564575262
H         4.13791472276926    7.35864451505320    6.46772852795037
H         4.65329800795216    5.68368034109951    6.33706791181213
H         3.72054996479264    6.21977019930899    7.73860416496553
C         2.47449498679256    3.88980001682065    7.31086389098185
H         2.25641998162920    2.85214238140753    7.07593009262785
H         2.06617852909988    4.11023557692913    8.29851247242869
H         3.55344490474877    3.99423161148912    7.36185451791725
C        -0.04088488977942    3.20530167403594    6.13955750145750
H         0.06226322884433    3.10168136032523    7.21634305942112
H         0.36214130208286    2.30723757950601    5.66884854324655
H        -1.10164513079253    3.25741988796780    5.91549692210765
C        -1.04365927085183    4.61687940022187    3.83150154140783
H        -1.08306454702141    5.06367091773340    2.84460636651735
H        -1.99461473446803    4.79645199204888    4.33424627765456
H        -0.92695223965037    3.54243826448289    3.70461925968602
C        -0.51085289827239    8.51614751787239    3.20856046022569
C        -0.28411012341071    9.37790662304729    1.96164298256916
H         0.53748682885781   10.07026974771545    2.08556293671174
H        -1.18259488451894    9.95096571252591    1.74084927753352
H        -0.06402145434747    8.73716075402823    1.10968175403330
C        -0.87562089717971    9.39275117080140    4.41597844806518
H        -1.81792518227915    9.90506964000416    4.23189365352513
H        -0.11598034645075   10.14280078349691    4.60682326365495
H        -0.98546277684893    8.77747086769002    5.30716169210641
C        -1.71831559836307    7.62511767888304    2.90897556593773
H        -1.99434348582904    7.04088857174875    3.78003584516981
H        -1.50509139406539    6.96394683255438    2.07321741829892
H        -2.56918750489710    8.24573481374953    2.63466311168309
C         2.85470239147303    9.25649728503565    4.47718951457276
C         2.58351015671244    9.67022752212899    5.93399936462041
H         3.22190282101647   10.50778231704086    6.20847795209905
H         2.76479786632105    8.85460021223618    6.62572036149737
H         1.54777704526305    9.97820289796237    6.05408051802022
C         4.34470444106128    8.93008738980385    4.27090788830613
H         4.61048452962340    7.95486001212228    4.66124849046270
H         4.96939780343241    9.68250253433806    4.74794213255271
H         4.56744159940421    8.92083442711113    3.20567732875684
C         2.56570750142802   10.46364607886111    3.58180428766839
H         1.58084329211499   10.88220042652982    3.76284406768359
H         2.65579242921746   10.19253848507410    2.53363337905769
H         3.29711205202232   11.24252708989102    3.79142660235257
C         1.29719319224129    5.66694024923375    1.36427459575812
C         2.64564699756180    7.85168308789730    1.30407516042593
C         3.76830638506083    5.89799550961790    2.56194976300048
O         0.79966565125884    5.06592929112672    0.52100482095134
O         2.97957886967192    8.51614252779133    0.42651126923526
O         4.80108478939309    5.39808351262515    2.51185718713563

