46
CSD_code = BMPBCR | q = 0 | S = 0 | Stoichiometry = C18H24CrO3 | MND = 9
Cr       -0.03264013568363    2.48945712049160    1.28839157545926
C         1.93624885456509    3.25134273961611    2.42396240689005
C         0.78867666964517    3.28874361031581    3.24875307249598
C         0.03897336086899    2.13514418358993    3.51620092504551
C         0.35837978093728    0.92762852254087    2.87735784800144
C         1.41935877474421    0.88878037641744    1.97148949638533
C         2.17696811098572    2.05140246496138    1.73650674095462
C         0.14517172275097    2.43036833893253   -0.52360248458332
C        -1.04394212303118    3.93207358585966    0.82641061382627
C        -1.62757111194954    1.73143402050486    0.85679244079722
C         2.99291073349490    4.34304710583183    2.38385508359638
C         2.50084206532350    5.64313983563731    1.66186268807144
C         3.72099630230524    4.41180211398571    3.78095380425115
C         2.27134623574820    5.27277671409197    0.18702335949183
C         1.19327292815339    6.23109955187920    2.19793840803879
C         3.56294522902982    6.74847878810351    1.66238992232730
C         3.06850724981692    5.31867164017756    4.82548516709721
C         3.79008424975243    2.99149773205164    4.37511109677431
C         5.18148062859655    4.85660475113493    3.60417439504095
O         0.16458261952570    2.40532379975942   -1.68003146313798
O        -1.75355526965456    4.76787481937539    0.45073636478923
O        -2.64996573993295    1.30587060180957    0.52576156772501
H         0.56652486816826    4.18127305197632    3.81682666558381
H        -0.74535533645045    2.16330722886852    4.26323573940393
H        -0.16940929716737    0.01833893599911    3.14006853892646
H         1.71372502525510   -0.04652788616364    1.51169865740022
H         3.05461566146926    1.97320907337225    1.10261890844449
H         3.77514212463055    3.96180894671041    1.71375080204429
H         3.19986977020909    4.95206421275156   -0.28125099386835
H         1.53223421321174    4.47972053883740    0.08038712974467
H         1.90464522489731    6.13946958907820   -0.35657169639324
H         0.99717595725900    7.17201144822154    1.68792162766355
H         0.35346146795789    5.57303484035905    1.99120093767010
H         1.23892879802166    6.43855680052472    3.26175972361447
H         3.69638237044157    7.19001634240374    2.64509644244584
H         4.51761669555842    6.37505075483973    1.30177318401148
H         3.24409020602977    7.54305455406103    0.99043954533242
H         2.05540015691298    5.00463478933156    5.05876400637353
H         3.05270868761307    6.35568778566732    4.50629766402938
H         3.64572888069410    5.26695516928165    5.74755292726760
H         2.81368610879601    2.62465997850694    4.68274127009032
H         4.42723341622070    2.99792906908496    5.25735693613987
H         4.21646875253563    2.28957766026559    3.66086612322082
H         5.72220414691810    4.70170389403883    4.53607161828307
H         5.26658829753233    5.90578547798875    3.35102306313223
H         5.67706266729376    4.27151532692517    2.83234815010073

