68
CSD_code = BOBBUP | q = 0 | S = 0 | Stoichiometry = C31H34CrN2 | MND = 7
Cr       -1.09265041802926   13.02920080952260   13.49643782404306
N        -1.22355383144452   15.89275790056303   12.57753727673537
N        -1.96270136984761   15.68754469496832   14.59034238188386
C        -1.43118139258381   14.96314984139778   13.55907223620946
C        -1.61821174743415   17.14696603711232   12.99273777607083
H        -1.52997949594159   18.00510977613703   12.35876826758958
C        -2.07798316937162   17.01899847554031   14.25199141267368
H        -2.47634076878134   17.74230699381233   14.93328364183681
C        -2.65127072718787   12.78557512947658   12.08406731323338
H        -3.30489445580754   13.58587944876347   11.75857134986612
C        -1.50562724372456   12.32190850942139   11.38756889401684
H        -1.10090634389286   12.76609909599425   10.48768680927174
C        -1.28037210447886   10.97260679423522   11.77927268573158
H        -0.53526030860800   10.32220915132696   11.34999012017070
C        -2.17889303460108   10.64743587833796   12.76870677002389
H        -2.25987230774276    9.69865667736966   13.27326307359446
C        -2.97817925193607   11.78786589242751   13.03965478795375
H        -3.87761410875002   11.75968412409236   13.63753568984595
C         0.74692084176293   11.10610220130817   14.01999445858138
H         1.14116718326326   10.29544116307499   13.42936621919405
C        -0.19643982187735   11.00797159637511   15.01604836436633
H        -0.66809393599846   10.10387917959792   15.36621937947981
C        -0.44254125792391   12.30905042855060   15.53756390490409
H        -0.96410775459433   12.50117464549276   16.46619144348800
C         0.46770892122539   13.20079638326175   14.91424665035978
H         0.81349233073626   14.13777819190005   15.33297719882189
C         1.10435815048500   12.47201756632630   13.87491624815422
H         1.95235324808853   12.81071067728714   13.29728663813789
C        -0.69063560114596   15.63960302788477   11.28921741235176
C         0.69212234886647   15.48804749928410   11.14239569884543
C         1.20568551572132   15.22631308573697    9.88434334134284
H         2.27180658416698   15.09586068378583    9.76673710106396
C         0.38275858468145   15.14058762141869    8.76815647203315
C        -0.97552973613076   15.35990287329164    8.92932852804944
H        -1.62621743139151   15.32914345762709    8.06694989344993
C        -1.53077259202626   15.61876125889842   10.17593161551199
C        -2.28397617820410   15.18841026931446   15.87745835890679
C        -3.50075190423077   14.52878172677145   16.07461759941583
C        -3.79444315629116   14.03272930840376   17.33295741325042
H        -4.72773641533979   13.51134813236712   17.48981714652466
C        -2.92108140479568   14.19927018990063   18.40072495919051
C        -1.75094100693722   14.91157208664840   18.19434631720360
H        -1.07533530749724   15.07755413376569   19.02134079826692
C        -1.41830764241508   15.42175465053267   16.94631839570356
C         1.59516745813162   15.67477530548467   12.32167197006444
H         1.26707180677735   15.05646839017943   13.15367018779814
H         1.57235455771878   16.71697617091614   12.64348484782112
H         2.61905539845303   15.41712241902929   12.06638480604310
C         0.95535525880646   14.81695144865343    7.42229539200918
H         1.95693311089675   15.22787032751745    7.31756543889009
H         0.32619188091830   15.20794157032540    6.62632932563166
H         1.02181471848515   13.73539416099693    7.30047457727553
C        -3.00136137636617   15.89815835748175   10.27478225402493
H        -3.33998881033217   15.92952152005495   11.30673876623150
H        -3.56550082140023   15.13622120701722    9.74036415822620
H        -3.22431647527339   16.86058559108767    9.81286656374051
C        -4.48747019795107   14.42684823851457   14.95359260678821
H        -4.00463090581856   14.05313444899958   14.05404841390026
H        -4.89872553442338   15.41295483606309   14.73300676781485
H        -5.30714953787346   13.76634787078006   15.22148895104160
C        -3.24279958102367   13.61842695750232   19.74347543015502
H        -2.69495281002169   14.12947399708266   20.53124616613323
H        -2.96497123233316   12.56436349474207   19.76590556849396
H        -4.30849397719351   13.68732237734752   19.95041933352418
C        -0.16841638956358   16.23805357210674   16.79714742464431
H         0.65540846534701   15.76895117746579   17.33092496688257
H        -0.32328654666975   17.22747587451105   17.22955475945627
H         0.11154105867414   16.36484341682345   15.75482145607739

