78
CSD_code = BOBJIM | q = 0 | S = 0 | Stoichiometry = C30H44N3Sc | MND = 9
Sc        2.21702501500414    3.36386408876783    5.46110622651977
N         0.58370489343817    2.81075367784562    6.78830934840674
N         2.07642794808866    1.27083574562595    3.55668522863663
N         4.00635829819439    5.40318000693992    5.75145082145334
C         0.12787708206024    4.08959176675850    6.53123271971362
C         0.77359866714281    5.00201688241403    7.36991446039691
H         0.60120401737893    6.06320762543802    7.43370316118378
C         1.63162807796971    4.25187610095424    8.19392989237109
H         2.20061814611411    4.62833167058887    9.02777620668872
C         1.48512560434445    2.91330088002857    7.82374445385026
C        -1.19161327810846    4.28164194372303    5.80917453268468
C        -2.29604124817498    3.82135751117215    6.77658345673064
H        -2.14681034811958    2.77726184639031    7.04073983783112
H        -3.27656717107809    3.93457822008886    6.31770145535055
H        -2.26781384757117    4.41149089488552    7.68967565828144
C        -1.42172952267063    5.74939274273470    5.44721712784959
H        -1.51506744596047    6.35622413218557    6.34433475125308
H        -2.34103746326614    5.85141999325804    4.87315183397197
H        -0.59336110508634    6.13493771299756    4.85805506330074
C        -1.25361685340847    3.41792377300304    4.54757310712381
H        -0.49687826223686    3.74526630145717    3.83271351068585
H        -2.23461582538730    3.49745194116949    4.08107537115627
H        -1.07719985399789    2.37640269295568    4.81357468973790
C         1.87072855433851    1.71481249954961    8.66962091909757
C         1.01959431284079    1.77637707529717    9.95043126938165
H         1.23524602890102    2.68186343291508   10.51195248660735
H         1.22573387100177    0.91612498295371   10.58483263391310
H        -0.03752316515793    1.77809767858888    9.69599498494987
C         3.35240811558650    1.75614280145349    9.05945757120849
H         3.98665410443429    1.74557882124335    8.17504617975836
H         3.60117993105333    0.89486574613888    9.67736058660576
H         3.57186184753429    2.65642110001155    9.62912324103266
C         1.54789270634200    0.40679631732236    7.94512466150911
H         0.49162384612410    0.37932704855321    7.69001744101537
H         1.77814358151977   -0.44359859435066    8.58457533024202
H         2.12195256135238    0.32075472498029    7.02551353021416
C         4.04640447126469    2.05868951354564    5.44802634157175
H         4.95099021312753    2.35944761619656    5.99626114561260
H         3.73037359937473    1.09173126494580    5.86430282616241
C         4.39387503774926    1.88244532362787    4.02695482529862
C         3.42867318172716    1.46786150606661    3.08077868082979
C         3.78041811262244    1.31760353953931    1.74944053123130
H         3.05112767457747    0.99501459749340    1.02216557643554
C         5.06993087636536    1.58177119711936    1.31479499211725
H         5.32170881520155    1.45754941468580    0.27230368965051
C         6.02302657542663    2.00143152661346    2.22454031677688
H         7.03166004300986    2.21012315866788    1.89827145507498
C         5.68565100390157    2.14019651072151    3.55576464468073
H         6.44430952128836    2.45270521551232    4.26100583725397
C         1.90728370728289   -0.08742467299941    4.07945205388366
H         1.87184012753785   -0.82408848430501    3.26374515050267
H         0.97721356509440   -0.14600255177870    4.64591015054838
H         2.73829549123250   -0.35456910398892    4.72673135927792
C         1.06103889546187    1.48551862958061    2.52796264742176
H         1.23029744391527    2.44079503844729    2.03568728081888
H         0.08088953856176    1.49314423532154    3.00240123176124
H         1.05546960898055    0.69014397720954    1.76960070473285
C         2.15678894730212    4.73186627580724    3.69070919032622
H         3.11427813315094    4.45795963197015    3.22151171210044
H         1.40110642104040    4.70807304358502    2.89384428478290
C         2.21673471023755    6.09677449531928    4.23983133394963
C         3.12480860380275    6.44543092636104    5.26560045433803
C         3.13834745097044    7.73075092406602    5.78030014178827
H         3.83554271570064    8.00130799522709    6.55912988370442
C         2.25709848437972    8.69547353863274    5.31628951050116
H         2.28053690352062    9.69052639851835    5.73466242453206
C         1.36161646566979    8.37422274439071    4.31246557001347
H         0.67631569615179    9.12017810350035    3.93658301882917
C         1.35184635434579    7.09951919025635    3.78221467559143
H         0.66265354741196    6.86386742837752    2.98092993142647
C         4.44470949956467    5.60217279552328    7.13375414247723
H         5.22133585674151    6.37432215842096    7.21983174111753
H         4.85870293810112    4.66341702151853    7.50747433311949
H         3.59742397029684    5.88634413080364    7.75207759642495
C         5.20440822262186    5.36006988148015    4.90672600781608
H         4.93916433952068    5.18290292133190    3.86784930092384
H         5.85546465938176    4.55497433617631    5.24128592026433
H         5.75902675583874    6.30728682048333    4.96525363362016

