100
CSD_code = BOBJIN | q = 0 | S = 0 | Stoichiometry = C50H42NO4P2Rh | MND = 4
Rh       14.26490949765990   11.52401418990264    9.16378103956470
P        12.97667457762407   10.93860765505620   10.87064135897525
P        12.57013458472460   12.65513133595132    8.24026484316333
N        15.83135033012860   10.59051002470507    9.93135040887443
C        13.59150321463620    9.45890386338149   11.74788954383555
C        13.88318001272600    8.36456907014192   10.93202122031470
H        13.65084577844730    8.42746805301392    9.87461694517162
C        14.47584401379572    7.23373253510941   11.45662624471904
H        14.69122728728746    6.38877026156641   10.81867768916513
C        14.81009671855593    7.19147628090610   12.80194901819717
H        15.28278946536914    6.31228791029075   13.21459861335800
C        14.54966451810491    8.28304439183309   13.61158982000403
H        14.82246534055984    8.25645724539800   14.65687246065147
C        13.94630453339047    9.41555438201170   13.08973167426329
H        13.75773315564836   10.26642057320888   13.72870463132613
C        12.76793368172546   12.15461302920662   12.21591842670233
C        13.50145289406292   13.33203322200498   12.14812540100479
H        14.16407977534661   13.48023989307083   11.29900031559669
C        13.35756405671655   14.30075538303659   13.12399111607994
H        13.92177111821426   15.22005225456654   13.06411369940948
C        12.48169175914517   14.09218087826588   14.17636652619875
H        12.36472186152921   14.84764713319411   14.93966873874142
C        11.74771392961630   12.91840762962964   14.24957717679218
H        11.06184601374732   12.76178269855953   15.06998869478834
C        11.88544834730276   11.95120641380040   13.27172774736239
H        11.30311375743746   11.03994657308982   13.31314071920484
C        11.22126593687345   10.54425294199664   10.54341488982343
C        10.76409484745844    9.23151112931484   10.49368974883132
H        11.43952376193893    8.42264978836798   10.73006433343066
C         9.45250963359729    8.94458928896194   10.16423131813495
H         9.11966983622153    7.91770123922978   10.12664471543351
C         8.56912607941813    9.97470630074938    9.89486807294666
H         7.54058950745341    9.76097563748522    9.64481925643581
C         9.00809581630449   11.28361635764895    9.95490906432476
H         8.32054861435457   12.09298300421604    9.75354424525669
C        10.33342649879697   11.58747934892498   10.24865589291604
C        11.61088452888546   13.63823601623058    9.45701890180981
C        10.70534578971666   13.01714178113565   10.32763995907328
C        10.04782798500383   13.78542377961675   11.28445883689542
H         9.33620002073209   13.30206957073567   11.93945062671716
C        10.30752775462490   15.13502048897351   11.42504875676491
H         9.79868455194219   15.70694823108761   12.18681401646668
C        11.21749317258372   15.74467849507465   10.57953506058308
H        11.42711947376467   16.80012454596202   10.67481558763958
C        11.85387412820977   15.00035270430969    9.60400151168253
H        12.55068777605667   15.48558108961460    8.93588109426522
C        11.22455751153470   11.72371260527292    7.44002881094352
C         9.98214265349438   12.29508192655393    7.17962872230656
H         9.79581798940105   13.32530256033204    7.45549025609185
C         8.98767881609035   11.54177995311272    6.58491638353754
H         8.02342261269241   11.98625984386992    6.38104138013842
C         9.22308688036214   10.21613336440843    6.25497930905702
H         8.43968876637542    9.62969017709086    5.79625531270205
C        10.45861790272654    9.64608745962118    6.51101989000185
H        10.64078638513377    8.61384923396459    6.24948473709988
C        11.45996427040164   10.39792976733545    7.09978198300858
H        12.44092536719619    9.97963210231106    7.28752500677002
C        13.00664699150592   13.90834709960312    6.98710944104365
C        12.31293039462546   14.11048596446452    5.80172397422125
H        11.44082848418001   13.51517356245870    5.57352020104601
C        12.74389251460088   15.07012601838557    4.90167349121586
H        12.19461376687883   15.22851945645938    3.98374121323126
C        13.87735994801631   15.81895865640100    5.16547130194578
H        14.21549105914774   16.55864567423279    4.45342137158468
C        14.58469633015826   15.60964516555220    6.33841609685360
H        15.47914773226047   16.18157214824329    6.54011041698465
C        14.15105423511593   14.66148283211125    7.24440397097113
H        14.71168436905586   14.47199321593110    8.15144940466883
C        16.38967793400818   11.54780996669421    5.60341542645590
C        15.88149309035714   11.97356736626215    4.37731959046803
C        16.74902531557797   12.14338848657709    3.30129684008800
H        16.38928640725569   12.47875197309510    2.34184210171030
C        18.09660520654737   11.88262058996713    3.46577155873476
H        18.76574929415765   12.01638429635690    2.62805290677273
C        18.60951504548343   11.45155662367524    4.67574515617387
H        19.66576698676483   11.25286342983999    4.76205083208988
C        17.74994360960735   11.28314760116077    5.75632573145738
C        15.47284841113311   11.36764715213827    6.79028769536848
C        19.49322464446285   10.60234703224866    7.22579677573100
H        19.56533227201461   10.30380392010584    8.27142814930933
H        20.09683228151278   11.50201760326358    7.06583806374614
H        19.87458077948434    9.79353106854328    6.59223026851997
C        13.95314403346953   12.49815321355253    3.09766077654864
H        12.88109185372795   12.53490385360259    3.28309073852299
H        14.16540294860093   11.72082549736588    2.35572962026992
H        14.28690879109264   13.46881060219254    2.71392504433587
C        16.47160405678189   10.99838342080685   11.02991390394739
H        16.06494807014794   11.86407701223954   11.53910073408411
C        17.59138722459608   10.36040892572693   11.52642680827007
H        18.07079151119149   10.73299446491035   12.41850860123411
C        18.08000409993605    9.24268666256244   10.86661406086609
H        18.95066713277469    8.71891715847880   11.23250681473122
C        17.41713178496634    8.82098258850715    9.72526527731046
H        17.75643143469419    7.95958031751993    9.17147717004120
C        16.30567976466780    9.51946720277243    9.29162043694878
H        15.78143330868754    9.21754171982825    8.39297115640064
O        15.60339978566339   12.21801771428378    7.70880733981850
O        14.68857715065926   10.41281150593773    6.82283921035491
O        18.13026691164013   10.84350338693648    6.99357818536398
O        14.54085793817152   12.20263423364181    4.33763038684376

