127
CSD_code = BOBKEK | q = 0 | S = 0 | Stoichiometry = C38H80N4NiSi4 | MND = 4
Ni       10.68468239799265    4.23464626595879    3.16101215087491
Si       11.72899503874970    3.00970821487564    4.72584222332796
Si       13.52724076153084    6.88442019737991    4.68534426356200
Si       12.46253221762553    0.78236660203522    4.67223422784645
Si       12.76669929820611    4.88566873793859    3.71919939087920
N         7.96970833068983    3.07230124623217    4.10536951676608
N         8.44532768839259    2.47179450221562    2.10947091978109
C        13.41333164737505    0.51817690585433    2.98138081424748
N         9.43666814376433    6.61226412454816    1.80106651495777
C         8.90355848713858    3.21960442702703    3.13872124381665
C        10.35466366888950    5.62329499468968    1.71252686457724
C        15.41892451761501    6.59208814178600    5.10297211713721
C         8.03183576122900    3.70505052220331    5.39152482738217
H         9.02422256039031    4.14659040225458    5.49922411664382
H         7.87882788643933    2.97513557921274    6.18724145332997
H         7.27358971073402    4.48771909578696    5.47902184413420
C         9.43938312934636    7.40315833112902    0.67313672218670
N        10.92771515659838    5.80096308864310    0.50068532669664
C        10.86851196324542   -0.37281329269909    4.78429428630546
C        13.62578560780888    0.52975129509859    6.22652250494190
C        14.76851149487906    1.22281282075821    3.02214231174952
H        15.25147277944093    1.16137278330502    2.04522317480690
H        15.43663072612463    0.76117270082532    3.74252243781296
H        14.64819343200450    2.27377600900003    3.27149601469715
C        12.44950607270891    7.19046077934976    6.29005481063237
C        13.31062669903394    8.35368446935242    3.38678339616036
C        14.48994642546853   -0.72906985546960    6.14462021190694
H        15.20486327052323   -0.66268159285355    5.32901875820000
H        13.88489852041248   -1.62027133752504    6.00087790652552
H        15.05740939748400   -0.85561942977027    7.06835599377900
C        14.54702405643885    1.73928207248393    6.39118881888406
H        13.96350695803030    2.64497584596086    6.52680589601627
H        15.19597044158689    1.88054433197770    5.53590972213690
H        15.17914836120221    1.60829497774222    7.27036454281887
C        12.62803640017675    1.15441076734062    1.83263882425832
H        12.33308779542370    2.17475452212218    2.07442374627105
H        11.73328625122750    0.58895830961938    1.59922176731174
H        13.24191276440356    1.18795960862805    0.93104263751215
C        10.38758366437266    6.88642942216837   -0.15435352745537
C        13.66089027864252   -0.95025895204057    2.63441485125733
H        14.22684699797431   -1.02553435382152    1.70388382067986
H        12.72764782372298   -1.48934757031906    2.49424766090077
H        14.23109586767022   -1.45052690612742    3.41222465842059
C        11.96161120536707    4.96456353007207   -0.03817323733248
H        12.29041029802540    4.28652731528262    0.75035616140594
H        12.81049809404618    5.56522302214053   -0.36756786923849
H        11.59027318126376    4.38310296708310   -0.88618499424462
C         6.95137164233434    2.23947011137304    3.69611487556441
C        11.84009372905688    8.75988176548670    3.28820042584180
H        11.69040449427236    9.43374075068014    2.44212706003859
H        11.50583902630359    9.27866642956674    4.18191588164387
H        11.22329424532613    7.88030717899011    3.13587182638992
C         5.80570834189141    1.89328984195009    4.57605250550744
H         5.08987427700802    1.27960006894528    4.03646781664170
H         5.29941134998699    2.79318218880229    4.92542893068518
H         6.14755123686491    1.33732133547787    5.44963403034570
C        11.16780796113740   -1.82385975686375    5.16324174350613
H        11.56928810318753   -1.89597267153793    6.17018958587178
H        11.88005284920563   -2.27498019408782    4.47722098110712
H        10.25129194910280   -2.41646946172667    5.13162454047210
C        12.80357633578488    0.45467062560142    7.51269140565750
H        13.46713751899935    0.44454704529536    8.37888341114046
H        12.20204995651389   -0.44798630786834    7.55551107051051
H        12.15167857533356    1.31969134062712    7.60076737114297
C         7.25411017397253    1.85628329918488    2.42623695320245
C        10.12332608709183   -0.37524550687256    3.44942767937908
H         9.15044732380378   -0.85826123839110    3.56043204169476
H        10.67174081635293   -0.91789435328903    2.68506326828984
H         9.96062143833359    0.64416059266601    3.11457300802882
C         9.11745739576985    2.34295467812132    0.84960284595549
H        10.05544619036711    2.89540162837269    0.92058390860848
H         8.51073281868050    2.75924369554953    0.04133621371899
H         9.33283194487984    1.29643381644050    0.62678727878049
C        15.98634680837410    7.60633893433441    6.09677251329917
H        15.51525528004226    7.50755053353583    7.07096965644591
H        15.84874179750921    8.62675924120006    5.74927690550864
H        17.05666155087630    7.44078514721325    6.23198331581476
C         9.88588833861784    0.20723276691924    5.80326185951838
H         9.62527787241716    1.22580236676450    5.52952298185628
H        10.29541437603191    0.22070449615195    6.80596276825274
H         8.97141769067910   -0.38853995883056    5.82235140170183
C        16.27137601276553    6.64639454315482    3.83519792157982
H        16.30579134025808    7.64614410260773    3.41344131473063
H        15.88772054262256    5.95848306834330    3.08640950609460
H        17.29759993807556    6.35475033362935    4.06406706349420
C         8.56529144592518    6.79639623738114    2.92502569383706
H         7.52252920087911    6.64132254031887    2.63651944177914
H         8.67114970490162    7.79908508143038    3.34286906328924
H         8.84462066288198    6.05937115071980    3.68028686208138
C        13.69583362952556    7.85815785145549    1.99176319303721
H        13.51323488489145    8.64024426525595    1.25236519666845
H        13.09628845511575    6.99167357226785    1.72839294066314
H        14.74061675877609    7.57879522888008    1.93014014535047
C        15.61832927548092    5.18913232048320    5.67845119312929
H        16.67397142749856    5.02445010640176    5.89781991991648
H        15.30115382007874    4.43632006527581    4.96298945226454
H        15.06277908525994    5.03820093625526    6.59562086068734
C         8.54151247573430    8.57736318715044    0.52617639159709
H         8.75406219020449    9.32007908465687    1.29583889499158
H         7.49635330275951    8.28209221692621    0.62212844644467
H         8.68312625213227    9.03923642811663   -0.44675622158331
C         6.55092592552873    0.95505866920597    1.47750948547133
H         5.62230153425805    0.59956285860296    1.91485596806536
H         7.17278055770144    0.09194571240797    1.23768935504322
H         6.32046753687255    1.47366866924859    0.54644778617125
C        14.12761346936018    9.60626915322932    3.70683065639452
H        15.19456837700008    9.40953765142245    3.65055041215615
H        13.90067862981249    9.98535683093816    4.69997338311083
H        13.90049388705658   10.39551003708370    2.98729822853300
C        10.85186354675931    7.31229599802447   -1.49951975035396
H        10.25747782425040    8.14944828904916   -1.85441783158962
H        10.76516354771113    6.49524832269771   -2.21597551811083
H        11.89713021696561    7.62087015908879   -1.46455589442918
C        10.96863243181197    6.95832546717268    5.98254320970918
H        10.39135943194416    6.94194318581888    6.90832745683897
H        10.81667151686847    6.00510385699722    5.47800565944957
H        10.56157980388033    7.74392316066869    5.35627590380549
C        12.82693651462860    6.18676558528797    7.37847393882743
H        13.83870580476812    6.34853174259338    7.73710191570798
H        12.73889600217609    5.16817431801252    7.00973240894075
H        12.15784279229979    6.29408466753161    8.23408803715269
C        12.60223798205774    8.59427146327338    6.87613554537931
H        12.01072230023017    8.68621554503308    7.78906535395053
H        12.25443582242458    9.35569346442362    6.18303095458885
H        13.63733757321994    8.80811551104486    7.12752080631341
H        13.82415461085058    4.45169885718019    2.73999981489180
H        11.44373922632939    3.35049243399383    6.16234754654288

