59
CSD_code = BOBLIP | q = 0 | S = 0 | Stoichiometry = C19H38IrP | MND = 8
H         6.01371415884396    5.24496909886204   12.90045051847817
H         6.15031788459594    3.25386269817756   13.34131600138556
C         7.83748316831996    3.85404547267127   11.08951875603065
C         7.16873679899437    4.95393369900582   10.44901684022756
C         6.03703838592695    4.44689561076754    9.77935909893358
C         6.04174271784647    3.01547252234193    9.91778977607741
C         7.15689033971402    2.65062644616629   10.69408799917686
C         9.22366966638003    3.90672250455122   11.65973436331045
H         9.96025141190074    3.81494477146372   10.85702941402925
H         9.38819144939873    3.09663481537519   12.36695201947725
H         9.39846113249605    4.84739358620880   12.17736824720109
C         7.68799110849255    6.35417016175628   10.34586699474480
H         8.33620396440612    6.44065368274817    9.46967441004101
H         8.26791522101717    6.62674196139540   11.22478091032087
H         6.87578475508738    7.07065031518884   10.23605116880038
C         5.20682094686363    5.23155107166578    8.80882495502732
H         4.88801609646816    6.18429627978937    9.23367197079742
H         4.32233793457669    4.67882044391637    8.49723524362987
H         5.79372888015928    5.45062796693151    7.91261142972507
C         5.22926183606586    2.06941979989859    9.08883278352846
H         5.72312483259054    1.91766390036659    8.12464170530000
H         4.22961500819379    2.45264563685086    8.88550631291838
H         5.13651580755885    1.09592048512182    9.56794169088348
C         7.66087956003190    1.25853827254979   10.91537811185951
H         6.84490646995138    0.53743655060760   10.93969416446817
H         8.20771344391728    1.18380160422760   11.85319731122170
H         8.33739847202211    0.97458930037345   10.10483387336863
C         2.56600641699049    4.05971570775703   10.93573428856269
H         2.71503645014925    3.18099561293269   10.31328527315551
H         2.91111932881571    4.93337098247601   10.39083177078792
H         1.50651749351373    4.16350567257274   11.15554290235118
C         2.84294201744501    5.27448955660596   13.53563289002520
C         3.62806931301874    5.37872498270352   14.84351869372022
H         3.44309546094518    6.34582469714577   15.30762008060041
H         4.69351429956736    5.28042393315870   14.64764477324033
H         3.33446874175920    4.60886131256619   15.54840416299097
C         1.35463376151844    5.16115472270161   13.85961099168381
H         1.15586730926519    4.34237798636932   14.54484497979294
H         0.74516959077226    5.03853424702731   12.96767627870808
H         1.03625528154371    6.08131266617467   14.34909985679499
C         3.07168880492290    6.55408041687588   12.72483161871263
H         2.89909744162254    7.42740452482896   13.35113614227553
H         2.39565766480251    6.61384671919181   11.87551535761155
H         4.10022953578673    6.58680554336053   12.37040505113602
C         2.94579182848931    2.19400064767804   13.09167178809070
C         3.26940892311262    2.06502265776492   14.57799618430179
H         2.55823110663273    2.61594869351497   15.18657575492116
H         4.27317006585808    2.44190896171209   14.76724386969927
H         3.22670822234433    1.01945243997953   14.87996203589600
C         1.46346509363476    1.91384343647241   12.84491363518745
H         1.21478869024993    0.95020433676641   13.28941320146482
H         1.24080290579676    1.85169314619211   11.78279788315934
H         0.81833381910925    2.66060845214548   13.29296660796089
C         3.75722462182588    1.14420679586338   12.33121156529469
H         3.49124548715425    0.14455928579571   12.67273517687465
H         4.81971722872281    1.29817790491097   12.50407315548632
H         3.55940205150230    1.19725979373055   11.26337018033743
Ir        5.87262080716947    4.00025036586065   12.02165722397691
P         3.58040878413528    3.87890513819401   12.45941055425489

