75
CSD_code = BOBNOX | q = 0 | S = 0 | Stoichiometry = C27H41Cl2FeN2OP | MND = 5
Fe       -0.61570880910167    4.34542277516199    4.56353453029395
P        -1.32168941716876    3.27158804009595    6.33431118551678
Cl        1.44656782000530    4.12603252045431    4.89970871882418
Cl       -0.94879647327710    2.70659959799385    3.23282167041345
N        -2.35115886290741    4.85464133223999    4.40008094054977
N        -0.41192432672495    5.62487821846050    3.05825298262720
O        -2.94369291763263    3.61136585585897    6.23221813340018
C        -3.32852488339339    4.39528879776996    5.20013096105042
C        -4.65766382422333    4.69838413391192    5.00777189833624
H        -5.39561826394024    4.29601335187924    5.68079030313518
C        -5.01100785239439    5.50675897956487    3.92249538809987
H        -6.04755413479914    5.74562612392686    3.74831851642160
C        -4.02639563896333    5.97848310384489    3.08544226462729
H        -4.26843982608063    6.59455258347047    2.23553025010142
C        -2.69376795882353    5.63973052043157    3.33793605359522
C        -1.54521121706592    6.07339415377885    2.59884104141017
C        -1.67269921316440    7.01542898482660    1.44298246201367
H        -0.68988478118930    7.34106865458861    1.11044001942152
H        -2.26324598005683    7.88524107298413    1.72641441822080
H        -2.17689297053135    6.51520281714367    0.61684595482476
C         0.82084014259395    6.06388080488912    2.53582685663019
C         1.37618361555624    5.47715587067906    1.39268810267729
C         2.60810946406040    5.93645301242727    0.94772866997930
H         3.05380304400287    5.48883923127237    0.07289672245282
C         3.27319744797460    6.95328999131666    1.60317915373760
H         4.22880219788832    7.29976792716640    1.23816447570524
C         2.71738236693305    7.52060002235848    2.73384736036263
H         3.24335984194827    8.31220372524617    3.24503075648795
C         1.49699272757044    7.08243354317236    3.22225086332149
C         0.90064303407340    7.71117289732394    4.46044915622020
H         0.00326081872537    7.13821775878106    4.73809937598071
C         0.47291316321122    9.15294884186899    4.17693137105232
H         1.33266864078571    9.75750105953206    3.89811478892651
H         0.01575096205455    9.59188494692767    5.06160224833858
H        -0.24758338626483    9.18723401901337    3.36199065475643
C         1.87720839557647    7.64878851622181    5.63542445146519
H         2.20013984831318    6.62221219025308    5.79281993057063
H         1.39757413485992    8.01346014909228    6.54204682789256
H         2.75534561716623    8.26018407182289    5.44694494300468
C         0.68830926008447    4.34465968861120    0.67124675748830
H        -0.28555585192694    4.16576792551781    1.13336023340021
C         1.51166502044422    3.06476639889694    0.82887890975442
H         2.48535680968618    3.16318329310183    0.35431574525627
H         0.98304341250280    2.22663311704855    0.38197621247194
H         1.65869534954134    2.84907412721975    1.88379353704458
C         0.46385741248278    4.67133104349343   -0.80654692842999
H        -0.07635500621430    5.60965622176060   -0.91984062251172
H        -0.11820410356104    3.87965411651174   -1.27266828758193
H         1.40870160320050    4.75558022434555   -1.33793707213278
C        -1.39858003476312    1.41762411748891    6.64703480730223
C        -2.41825556481775    0.83338531867047    5.66735889925540
H        -2.36564922565455   -0.25361195998314    5.69512967627770
H        -2.20561289854277    1.15938822060301    4.65134314076364
H        -3.43003257977510    1.13539987878123    5.93164412788662
C         0.00004289936850    0.90490455094660    6.30557899468395
H         0.04658074352188   -0.17553307278448    6.42895806822260
H         0.75651780810108    1.35974854272036    6.94177086995734
H         0.23814594075383    1.14456038230616    5.27113538377256
C        -1.79479817236303    1.02562458734625    8.06725584184643
H        -2.74676252939476    1.47461827233016    8.34065172775649
H        -1.03620806386270    1.31181364675640    8.79066508035682
H        -1.90612383002846   -0.05736922518311    8.11532550786084
C        -0.92328632259904    4.26274971332606    7.90022447209973
C        -1.94991240655045    4.14312331684701    9.02454889096464
H        -1.81555356071107    3.23526572107237    9.60258430723951
H        -2.96299694478271    4.15933510271129    8.62746269190243
H        -1.83942243271551    4.98789749857227    9.70427099543095
C        -0.92168429006543    5.70964270070119    7.38800518891152
H        -0.62433527332014    6.39347955489853    8.18201657358175
H        -1.91303973440522    6.00543050123779    7.04153245372729
H        -0.20847933605838    5.81643345378063    6.56525029719160
C         0.48267287801188    3.90556526001645    8.37042697571921
H         0.81417600722818    4.61460841551652    9.12829552358600
H         1.17979733357476    3.94452626508581    7.53371522067139
H         0.51600313302642    2.90985287014695    8.80583139856362

