55
CSD_code = BOBQUE | q = -1 | S = 0 | Stoichiometry = C24H18N3NiO9(1-) | MND = 6
Ni        7.27172062882319    3.48324662584482    9.28832065811014
O         5.76912104647848    2.96366909342704   10.55927139237598
O         3.87381140937918    3.15789813414591   11.55663397012783
O         6.17175252461106    4.62633089856152    8.44344834777820
O         7.16764992870189    2.24961776174200    7.37482805585155
O         6.29483184020818    2.47228289587458    5.40728687655817
O         8.83993358101409    4.19629026612595    8.15587290747417
O         7.97023234359811    5.07795606347436   10.73460483224761
O         9.56841302754446    5.96262743708950   11.87367216167033
O         8.39271501787437    2.34217131208723   10.06958661786130
N         4.64182067272331    3.51583603510795   10.66028654806104
N         7.08419922416425    2.85706819753325    6.28196785560757
N         9.06326880150695    4.97038053856617   11.33600022644784
C         4.23704552962671    4.48606478882488    9.80876769008507
C         5.00515501228393    4.98254801140027    8.75239783071449
C         4.41662560593653    6.05538360623647    7.90220520043888
C         5.28774933195703    6.97155795543996    7.31648148267799
C         4.80220967464221    7.98084533576555    6.50783370108233
C         3.44195410452078    8.08037901394530    6.26495151110483
C         2.57238015516573    7.16116635953700    6.82866527852895
C         3.05305199199249    6.15184397591195    7.64336778604553
C         7.84414987273296    3.95312072763718    6.02219809667159
C         8.60240204392112    4.61458458828641    6.99337144212287
C         9.11709427442538    5.97008429111378    6.63875843937914
C         9.57894932159115    6.30465244112025    5.37038884048623
C        10.02909045144580    7.58712327121896    5.11152912199868
C        10.01574942437296    8.54765577075598    6.10986251790832
C         9.56435412263486    8.21847181309619    7.37790231106517
C         9.12584273882266    6.93524144826622    7.64363947616477
C         9.71086697109541    3.78517545397177   11.45232351576947
C         9.34545942053085    2.57480051185876   10.85385389402013
C        10.22394073618663    1.40096783829839   11.14800650529851
C        10.39061909392762    0.45002230798942   10.14434969153511
C        11.18801422264845   -0.65830932486609   10.35751509861627
C        11.81627958002914   -0.83664794310422   11.57950349324569
C        11.63676468895850    0.09478914828352   12.58874281062337
C        10.84511018853205    1.20990779467191   12.37757817751210
H         3.26188430007454    4.88687162439811   10.02757655930743
H         6.34596817474228    6.87860258223858    7.50845554448047
H         5.48766035560654    8.68780846278814    6.06307198277048
H         3.05942536174120    8.86756689413898    5.63054363630842
H         1.51248294009857    7.22757358826882    6.62709625686365
H         2.36952690027818    5.42530649459316    8.05486666575113
H         7.65493612765026    4.40145062132813    5.06065328069584
H         9.60481353087213    5.55681699655207    4.59179774402461
H        10.39384533043835    7.84012079754181    4.12513993941911
H        10.36309282607040    9.55010440763844    5.89990343849130
H         9.55812823750403    8.96223352856017    8.16166258269963
H         8.77604713190818    6.65765780222384    8.62740112774208
H        10.62461223903960    3.85171799689033   12.01998999767714
H         9.88204405202430    0.60369991466938    9.20486759878588
H        11.31804365411165   -1.38852727904372    9.57164552075693
H        12.43847943995031   -1.70441942218072   11.74921853007723
H        12.11307480417930   -0.05135143872195   13.54826144057605
H        10.69250598909996    1.91816198287542   13.17757379031493

