42
CSD_code = BOBSIV | q = 0 | S = 0 | Stoichiometry = C19H18N3ORh | MND = 6
Rh        3.66628967700445    5.77970765184932    2.51034466941503
O         4.00582699637235    8.42278118519688   -0.54645956653113
N         3.77941558794232    5.07997849403609    0.61264703356374
N         3.80822284434783    7.52434450514481    1.56123999999472
N         5.82884190422836    8.90316170306160    3.66578731558594
C         4.22955080854663    4.12360695256277    3.68503980906904
H         4.92307169516184    3.39648451944571    3.27950877718815
C         2.84361252798489    4.12932700564326    3.53962804058927
H         2.24268116048087    3.40553579921543    3.00276528899503
C         2.29728383025724    4.92261317269966    4.73008870895206
H         1.24126990892234    4.80140674304301    4.95624891275570
C         3.30926287251581    4.55017065491690    5.82338487809247
H         3.27843710109045    3.49424651583032    6.09324131838157
H         3.21812500421678    5.16512625451674    6.71877235607853
C         4.52571631135772    4.91751217902133    4.96065972746339
H         5.51205319910720    4.79071282546538    5.39821750632787
C         4.14626980142272    6.33012976779947    4.51393498396638
H         4.79287117795994    7.19483300311420    4.60443462510522
C         2.77119725616175    6.32977102041252    4.36780236144496
H         2.11312041571864    7.18882750386775    4.34751982983754
C         3.76256113137425    3.82135833253383    0.17815406859624
H         3.74077513605756    3.04383958236386    0.93122145746377
C         3.77407342766912    3.49299237342764   -1.16701995804635
H         3.75933986630110    2.45704865937407   -1.46750338460473
C         3.80418172107623    4.51118884274917   -2.10889472400860
H         3.81035281868210    4.28664647867782   -3.16487915290378
C         3.83007221207363    5.81908036128553   -1.66023109416595
H         3.86184975012154    6.66613883328467   -2.32779398713061
C         3.81637671406935    6.06648206180465   -0.29446744456671
C         3.88573232333538    7.47583897086461    0.23149949839406
C         3.94367491802135    8.85152964781197    2.14963803005631
H         3.37949565256870    8.89732845008036    3.08276289827022
H         3.56015212978592    9.59125434136861    1.43651485487000
C         5.39868898706199    9.12752985881620    2.43001669585647
C         6.25052025471868    9.54724921703701    1.41079404342539
H         5.85764088791906    9.70355449469369    0.41852720641431
C         7.58889016368664    9.74017717415282    1.70107619286123
H         8.27581982403489   10.06640704965191    0.93288919288800
C         8.03451650989955    9.51122187210938    2.99494263129643
H         9.06992206138260    9.65297435721804    3.26454716393814
C         7.10996224829104    9.09069575162311    3.93546918122891
H         7.40288118107102    8.89408583222744    4.95993005359826

