75
CSD_code = BOBSEQ | q = 0 | S = 0 | Stoichiometry = C38H32ClNP2Pd | MND = 4
Pd        0.10421441136067    6.28192001225293   12.47548550598261
Cl        0.63042896136475    4.20706632717461   13.42370258887593
P         2.12496815236014    6.99586538494866   13.19810402784146
P        -1.79235459745164    5.23640504639675   11.83725316874669
N         0.38486431638698    7.15254782581139    9.30272292173002
C        -0.41086607158391    8.08319532258266   11.56010817821294
C         0.02103257651054    7.60180503496099   10.30371036813946
C         3.27481750291085    5.77828542422490   12.49173313776151
C         4.40211143764375    5.28927528367305   13.13607611097920
C         5.18156746158788    4.32878639197425   12.51349651044524
C         4.83975775315857    3.85657643986814   11.25779892774123
C         3.71080849943458    4.34071754036276   10.61435661001881
C         2.92603842819608    5.29603916084134   11.22981151802363
C         2.79617856218537    8.58851377458173   12.62456289497723
C         2.38900503614278    9.74434157338965   13.28823859324244
C         2.80546763386656   10.98495931622501   12.84591574815816
C         3.62033614960600   11.08275210649267   11.72847972535413
C         4.01308888189703    9.93813905438251   11.05535540811955
C         3.60035494607885    8.69278298345446   11.49594976944208
C         2.47348729174213    7.04752274401199   14.97710918003819
C         1.55065846477068    6.48327473123949   15.85020568615601
C         1.78796697209270    6.49900418654148   17.21297723623751
C         2.94351072872090    7.08122913371302   17.70687796571014
C         3.86234851213120    7.65141617631510   16.83893381066537
C         3.63106133781714    7.63971892291389   15.47607313455402
C        -2.84327415192049    4.95757427173928   13.28837530500717
C        -2.43142294275631    5.52661981623567   14.48965576126839
C        -3.19726487893531    5.36921939417669   15.63030055528130
C        -4.38089983494439    4.65141124356221   15.57055262574688
C        -4.80984573443038    4.10987827696934   14.36848219940041
C        -4.04955063289469    4.26684123384252   13.22406848300563
C        -1.34648146725691    3.63572191029159   11.11083016631317
C        -0.36323995091453    3.70411861103454   10.12328674196687
C         0.10385882317809    2.54685680722098    9.53223812709336
C        -0.39767332593229    1.31737138143635    9.93149165507908
C        -1.35860794013195    1.24860027136251   10.92542579286356
C        -1.83498076781582    2.40421774401027   11.52152770465471
C        -2.99219765392937    5.93178144653682   10.65549090762464
C        -3.84030735280680    6.93822872089940   11.11391975142392
C        -4.72653488596811    7.55113307282804   10.24970767572147
C        -4.76699523225921    7.17211251783468    8.91710139370465
C        -3.92035016899846    6.17887848341641    8.45489010192718
C        -3.03199262047889    5.56064922324505    9.31702604357351
H         0.16119391130618    8.95834169017284   11.88234025538395
H        -1.48414389819236    8.29986004537902   11.56338857868730
H         4.65961735578143    5.64109862971787   14.12502522526611
H         6.05528463356568    3.94108734762745   13.01712837207698
H         5.44852030760721    3.10119278603446   10.78277155612560
H         3.43917801095160    3.96609721323503    9.63866937646661
H         2.02949371810342    5.68027348354624   10.73637249144897
H         1.74553010529874    9.65770346841681   14.15591935265206
H         2.49120138891682   11.87737973967500   13.36750292629076
H         3.94335053467435   12.05258737147061   11.38021627552889
H         4.64097154077715   10.01463710579370   10.17998626937758
H         3.90246916570737    7.80078628197219   10.96526814502447
H         0.65987646272505    6.01395158387351   15.44605730633461
H         1.07287965846766    6.05603019216455   17.89035968972988
H         3.13057376188888    7.09375797946884   18.77067366448561
H         4.76194530121846    8.10701090913481   17.22699540413064
H         4.33942777675477    8.09576300753040   14.79696909920966
H        -1.49925366131020    6.10286055308986   14.51158122899600
H        -2.87605940952804    5.80588558423757   16.56461345979382
H        -4.97804964988608    4.52153239106427   16.46116007298273
H        -5.74266384494082    3.56664853659769   14.32374205660088
H        -4.39251879807760    3.86964118010090   12.27790022369337
H         0.03129023164774    4.67545102956221    9.83176194790144
H         0.86490877817965    2.59960906325465    8.76747732767463
H        -0.02687906059314    0.41023098857148    9.47700648422213
H        -1.73326580360771    0.28814850167247   11.24870486004254
H        -2.56036894602873    2.34289956594428   12.31953178548415
H        -3.80421571641281    7.23052264385540   12.15696860162106
H        -5.38403387001015    8.32777361344919   10.61291689738743
H        -5.45680187946594    7.65377086508682    8.24003544340009
H        -3.94837740632874    5.88538889238163    7.41591768036362
H        -2.37137332893497    4.78832343094721    8.95062822267671

