86
CSD_code = BOBTAO | q = 0 | S = 0 | Stoichiometry = C31H50IrNOP2 | MND = 4
Ir        4.03262781410091    4.89146427078716    5.51899958662554
P         5.39498770032824    3.08967282873726    5.18840865964443
P         2.64337587444122    6.68847371857198    5.25563153334672
O         3.08342133394026    5.46832743349829    8.16551441653458
N         4.12275589668175    4.98875730733341    3.47319679527999
C         5.13899446208976    4.35667433858099    2.81099438088093
C         5.62864707168069    4.74178198050757    1.54809526450511
H         5.25197030233763    5.64421060940711    1.08751196920812
C         6.60026934699452    4.01196576525079    0.90486693057010
H         6.95128776779826    4.33936202441355   -0.06472922464467
C         7.13734717625650    2.85416213423839    1.46644387822851
C         6.74544967620612    2.52195549390141    2.75214208137980
H         7.17357605729212    1.64926285247420    3.22465250833903
C         5.81061590876435    3.28132011157788    3.44091842656358
C         8.12977568843652    2.02389624385629    0.70724166290511
H         8.58041678211343    1.27100297557298    1.35053229466250
H         8.92096705092247    2.64967679221355    0.29536340197289
H         7.64222424666001    1.51475299589993   -0.12537406060906
C         3.17263819047485    5.69429540254196    2.78457738084983
C         2.81736606483128    5.44752027958852    1.44511521543460
H         3.24383824011863    4.59666948596318    0.93252286782834
C         1.91355311798369    6.24776256294453    0.78630505876537
H         1.66591885535005    6.02788402020756   -0.24368416542116
C         1.31724226105565    7.34171175514697    1.41096263185086
C         1.57185784327641    7.53015401579002    2.75932006140588
H         1.08981303613520    8.34901610451946    3.27455425036931
C         2.43423241676609    6.69704332846510    3.45686121607120
C         0.40612239048009    8.25690756529585    0.64733249816621
H        -0.31769573584887    7.68482840555068    0.06777087570049
H         0.97972322193272    8.86943577412702   -0.04998704783960
H        -0.13256295724695    8.92083358380590    1.32024910259850
C         7.02113599746499    3.14866706748930    6.11405654709048
H         6.72423504100875    3.05366375590775    7.16694935484076
C         7.58172932150989    4.55200437718884    5.89866756701924
H         8.44735665765134    4.73004351083845    6.53476243355244
H         6.81227211548435    5.29331216470849    6.12778186885111
H         7.88170478460767    4.68043575905717    4.85971308209164
C         8.07163949052143    2.08735866225151    5.81008151664383
H         8.50449260013836    2.24648308700014    4.82624118951228
H         7.65769120735729    1.08255682513302    5.85911257886185
H         8.87667674439927    2.15439974141775    6.54209000672126
C         4.83737418267732    1.31676432250176    5.31181047556044
H         5.60373141171486    0.66007533886390    4.88388547256744
C         4.57443136391556    0.94289438542890    6.76570153329149
H         3.87056702064683    1.65083873564912    7.20128308243274
H         5.49171320131953    0.96044962447249    7.35048836945931
H         4.14699549893097   -0.05699280927349    6.83126981183231
C         3.56149478013654    1.20847073538798    4.48233787962248
H         3.14862541484693    0.20171402355761    4.52891714972066
H         3.76192376134127    1.45342293615786    3.44028965156461
H         2.81667707982364    1.90962160191047    4.86034057570279
C         3.06087487098424    8.46227175830468    5.63817256617158
H         2.34747146778847    9.12081834655052    5.12888232903910
C         3.02962934000639    8.71915728238976    7.13894449532272
H         3.64639313606197    7.98028434736759    7.64584336653534
H         2.01608723067657    8.64846517710013    7.52728583478339
H         3.41545442783873    9.71322105285584    7.36423921167944
C         4.45732845679123    8.70102831299276    5.07104692952018
H         4.78574125663263    9.72353675376989    5.25313628693125
H         4.46834743301818    8.51965341560617    3.99702358317334
H         5.16557870131244    8.01718143650155    5.53994576014825
C         0.92570534044403    6.42747214620679    5.94265377093518
H         1.07898430756129    6.43903337659394    7.02709820938748
C        -0.15414685231144    7.43893345669641    5.57944966763533
H        -0.42739143261266    7.35057636071866    4.53095130063480
H         0.16415744105984    8.45993334118382    5.77893465720501
H        -1.04738716297701    7.24438010630357    6.17359193121588
C         0.51183050948919    5.01686675582377    5.53147915218282
H        -0.42365647715595    4.72881947756454    6.00901302445312
H         1.29180552820359    4.30931625152610    5.82240447227627
H         0.38117730244152    4.95971174419199    4.45133317264436
C         3.98482745634437    4.80444392852214    7.42786949945008
H         4.67397015571768    4.22145617163634    8.06910864615731
C         3.04314494887859    5.34717489308397    9.60282219606520
C         2.81555942817102    3.88866560819575   10.00956737325856
H         1.94008777289003    3.49772004597265    9.49620282116884
H         2.65477672997682    3.82405152472234   11.08204281954715
H         3.67127901600800    3.26967601973881    9.75152326084314
C         4.33192977234066    5.89539594874191   10.22077190569227
H         5.19673573948356    5.33014536766917    9.88162105779572
H         4.28010551803784    5.83301167259904   11.30413187758750
H         4.46800014537251    6.93550134844867    9.93374542251282
C         1.84876126873036    6.20056250610835   10.03346872053040
H         1.99138906148195    7.22770154599870    9.70955324871634
H         1.74169697561508    6.18247490217554   11.11430711227975
H         0.93792640786871    5.81689160974012    9.58154371837574

