41
CSD_code = BOBTET | q = 0 | S = 0 | Stoichiometry = C19H18CoF2P | MND = 7
Co        4.78050491704838    5.21229173874203    3.40810393775337
P         4.65035132197608    3.06991062149786    2.95451036923788
F         7.34206313098970    6.17556649633603    3.93646503281686
F         7.35330533365113    4.11781352767486    3.44392554948663
C         2.78261218834853    5.59175586113201    3.99483913654670
H         2.02570791055283    4.94573031727567    4.41336827750426
C         2.93931654872276    5.86625002303316    2.60762841115482
H         2.31594531353693    5.46121310324459    1.82480986438111
C         3.89555356718880    6.88449740574950    2.46302510374523
H         4.14531739927752    7.40626193917474    1.55259779774431
C         4.37731846450808    7.20079454368218    3.76405211302952
H         5.04573281837014    8.01392161283474    4.00156399425300
C         3.64328522565496    6.43576706572819    4.71313027666948
H         3.67621459137495    6.55957466326622    5.78371956178436
C         5.34439187170576    1.86691295639795    4.15735537030788
H         4.98368645939934    0.85985817814648    3.95242692582742
H         5.05815459305820    2.16431093762631    5.16482176019563
H         6.42928900564064    1.89523040307862    4.08285462871712
C         2.95317370359505    2.44482755595864    2.73799453356324
C         2.35174668888292    2.50331439791524    1.48492390375079
H         2.92029065542545    2.86517438138353    0.63884906458554
C         1.03986171843345    2.09850483160277    1.32187842957696
H         0.58092538492958    2.14150344481473    0.34479802825042
C         0.31274547888638    1.64352553769727    2.40992085556917
H        -0.71276204120482    1.32990693938774    2.28247754045249
C         0.90094474989294    1.59884252545021    3.66316370110423
H         0.33287817696251    1.25250734300956    4.51451168203010
C         2.21356453294106    2.00253499617968    3.82927322487375
H         2.66419416897126    1.98027353937063    4.81131428357401
C         5.41742585794511    2.52191964487931    1.39457559867513
C         5.40893722228815    1.18475726100691    1.01003323238920
H         4.94090257800931    0.44245777332141    1.64098883512875
C         5.98828686456171    0.80672411014351   -0.18668288628389
H         5.98261779165458   -0.23247006295794   -0.48199469232387
C         6.57400498590942    1.75694398827223   -1.00864272005933
H         7.02645186820275    1.45626984449363   -1.94208976985513
C         6.57446911389367    3.09033601997151   -0.63541793644992
H         7.02546000077357    3.83234839802971   -1.27758565130797
C         5.99526122086479    3.47122965948719    0.56199134851157
H         5.98315395455660    4.51083943078715    0.87014043555291
C         6.52201466258801    5.17036704517692    3.60678084751850

