78
CSD_code = BOBVAR | q = 0 | S = 0 | Stoichiometry = C32H41CoN4 | MND = 4
Co        4.45986874402845    0.13626451667743    2.55374735901681
N         6.25122310324302   -0.42443417827202    2.49995881380198
N         2.83587509460520    1.03242203129308    2.26467493559998
C         3.74642703136939   -1.36712037693353    3.58541814468853
H         4.30248953215803   -2.30740010454209    3.53590213664162
H         2.69665695527334   -1.62455215259945    3.41960175747441
H         3.80824631248252   -1.04260965588599    4.63596994123490
N         5.02334292800969    1.24934946667222    1.27031076610474
C        -0.49473638606689   -0.09831546180535    3.38299355366716
H        -1.30706937558014   -0.71882665045191    3.03012198974909
C         7.47391129965432    4.53496124298636   -3.63587872796481
H         8.23303701902393    4.42722647119982   -4.40751367251729
H         7.62690029005576    5.48586953468242   -3.12403198761223
C        -0.58911390291475    0.50097413492004    4.63080957621622
C         1.67186482997630    0.86880126689938    3.03727084174528
C         4.45849510224381    2.71674949261071   -0.52525720363411
H         3.71879098008239    3.32565973251646   -1.01632543107433
C        -1.81719144001463    0.32498285241128    5.47373296539744
H        -2.55328131410462    1.09262069419524    5.22995066905234
H        -1.57705786809460    0.41247265059048    6.53083159645945
H        -2.27324660661133   -0.64621165951863    5.29529578143457
C         6.98842363214340    0.15028918024389    1.57860087045008
C         2.85036586910522    1.91391447767447    1.29236524991986
C         1.69516037139597    2.78834102206234    0.91463957427978
H         1.35389467960471    2.54895639005813   -0.09294958478440
H         2.00445355934468    3.83347904812467    0.92032507894163
H         0.86664758189922    2.65923268096171    1.60693793936380
C         1.60196342482260    1.46831280677447    4.29872955856597
C         0.61921829923639    0.07139651834412    2.57657300347291
N         6.14023702678968    3.31223657401472   -2.14433154568139
C         6.67260729841424    1.76937751502890   -0.37429881378258
H         7.66572855552553    1.61640571573882   -0.76110950037639
C         6.05180679378630    4.46121653461945   -4.18446909192502
H         5.72495552175128    5.39120904153723   -4.64446738167312
H         5.97792182562113    3.66055050039004   -4.92129484401699
C         5.76658834165162    2.62060778899346   -1.03114797594651
C         6.26622621343971    1.09140985591474    0.76766413247339
C         4.11589540499286    2.00602982160543    0.61790093111808
C         0.47201962362073    1.27704361419240    5.07541614945567
H         0.41981639631766    1.74020471111654    6.05113360767300
C         5.23453656683717    4.10687131827429   -2.94409854778478
H         4.93157607574762    5.01603486913699   -2.40431725086699
H         4.33405257973113    3.53859484777155   -3.19633071067635
C         7.72047666634535   -1.83274102295617    5.56814763198249
H         7.97809767051550   -1.50464271916012    6.56578438313761
C         8.45282149261525   -0.09224016479742    1.38230076755795
H         8.84613100595987   -0.74673110152704    2.15641747561580
H         8.99187452984540    0.85469605931850    1.40886278883092
H         8.63297496827862   -0.54904021969873    0.40872289847474
C         7.17541640695061   -0.92017650756947    4.67992451280447
C         7.50145908487979    3.38787282533175   -2.62776502726648
H         7.79290949235453    2.44716882251136   -3.11697459028988
H         8.19875535664023    3.58077537407573   -1.80674419195156
C         6.92828055948151    0.50439258693420    5.06959634233811
H         6.99031056336482    0.63180260782686    6.14729659228157
H         5.93323101731532    0.80426300779118    4.72441592643650
H         7.65494600891775    1.16620588728179    4.59651022265000
C         7.58169769152654   -3.55684441981227    3.92532054148913
H         7.72983996745673   -4.58821791090708    3.63586717977201
C         6.83987999288107   -1.34093475028783    3.38988047004676
C         0.71954770402742   -0.60151330580375    1.24114870252657
H        -0.00384888101781   -1.40949668984088    1.16374450501512
H         1.72385685568756   -1.00373254909668    1.10533051663043
H         0.53024329377195    0.10654117387838    0.43382853377160
C         7.93607624181612   -3.15391706288223    5.20589880327754
C         7.03629976449896   -2.67307106575166    3.00924837839675
C         6.63461452537226   -3.12556149855493    1.63814423075558
H         5.66901276454941   -2.69245668525801    1.37545155835671
H         6.56452519805581   -4.20976696683491    1.59754755611462
H         7.36103321875534   -2.80051438994109    0.89285246014881
C         2.75547186594051    2.29382930823528    4.77854432345564
H         3.69033840967065    1.76598601155342    4.56221106378682
H         2.68510036165792    2.48086217897917    5.84701378991545
H         2.78888709698966    3.25127580088515    4.25699658016029
C         8.54238549841025   -4.13382375057944    6.16608243797364
H         7.97901290848518   -5.06523042871361    6.17005284020759
H         8.55830196737642   -3.73012485857402    7.17539854166831
H         9.56711076000045   -4.36519225629529    5.87298660025717

