125
CSD_code = BOBVEV | q = 0 | S = 0 | Stoichiometry = C54H63FN2O4W | MND = 6
W         3.00514508252629    4.08625460057905    7.32128398906548
O         1.25156363271526    3.35221140928911    7.14671654940716
O         2.31072393663011    5.86945217593093    7.36626683444181
O         4.62209425175405    4.75742247576026    8.11763071951898
O         3.61294069067021    2.34457148587283    7.89211979719636
C         0.38049612056167    3.12116293380103    8.13940382440395
C        -0.52765188978302    4.11957604625337    8.53176903891490
C        -1.42970344638775    3.86905791549996    9.55388763034404
H        -2.11253580604990    4.65886612173508    9.82051141717655
C        -1.47050422133126    2.65176464701971   10.21926585694213
C        -0.56338235339354    1.67472005776781    9.82096669233118
H        -0.55976755260464    0.71302323482462   10.31202221397151
C         0.34708904467924    1.87824895311658    8.79960396279341
C        -2.44192602924681    2.35577152941221   11.35255963135459
C        -1.64275010637276    2.04638637870140   12.62698391726671
H        -0.98157082013354    1.19662809078943   12.48313218401868
H        -2.31818454828076    1.81806282960964   13.44876447851744
H        -1.03673956857736    2.90590656568670   12.90796549380394
C        -3.30560922768611    1.14478718158094   10.97456282398383
H        -3.84939283130272    1.34661393530564   10.05461379893478
H        -4.02519595278941    0.93444634647057   11.76312239777425
H        -2.69860664348311    0.25712056040271   10.82220419683611
C        -3.37656134833340    3.53119167434149   11.65073553578216
H        -2.81540286669174    4.41171626016833   11.95552790568639
H        -4.04825711815381    3.26384639558384   12.46409202805352
H        -3.98204090903681    3.77708261694531   10.78205325129608
C        -0.44125883487658    5.48822151435441    7.89423544361042
H        -0.00122464866740    5.39964822228249    6.89308598992471
H        -1.43829354688439    5.92578501903706    7.81567705192101
C         1.80828425290368    6.47586449464821    8.45031890341840
C         2.63059809321462    7.24005874724357    9.30033558686774
C         2.08355015166519    7.83434921117960   10.42323395032705
H         2.74354706681402    8.40335923488677   11.06091311467704
C         0.73423356726713    7.72451550854436   10.74456786078471
C        -0.06775482652917    6.98610613640345    9.88572777600757
H        -1.12143363046769    6.87674422970495   10.08283872091473
C         0.44021655344745    6.36587014248264    8.75499589879885
C         0.20869921240925    8.38997174390124   12.00812293014831
C         0.93308972957527    7.78987227532547   13.22240594059182
H         0.58859356980905    8.26437307222685   14.13888385355388
H         2.00823030271855    7.92836833484898   13.14909173658533
H         0.72936170048673    6.72247019984090   13.29017085101726
C        -1.29581724413603    8.18317594034299   12.20191885586841
H        -1.85688376501610    8.61096036507982   11.37498494186993
H        -1.61573776884471    8.67755288176581   13.11705796723582
H        -1.53892034923338    7.12653037753465   12.28922656023281
C         0.47756934979017    9.89910500942701   11.93749379827894
H        -0.00580432954292   10.32371629295897   11.06073342194749
H         1.54116839951114   10.10970595504225   11.87437841067755
H         0.08419985943755   10.39360375926509   12.82330350928642
C         4.11555360462649    7.33869122920223    9.02679535176114
H         4.30065459936484    7.11895129333825    7.96454597609286
H         4.46682270183604    8.34663798908939    9.25613848898517
C         5.04797659595482    5.04073046592855    9.34615442655992
C         5.68933631703578    4.06587165267432   10.13268857014124
C         6.10744923683683    4.39659878730399   11.40955767935240
H         6.60367594747524    3.63304819802984   11.99069179057456
C         5.91932179465127    5.66688232391713   11.95169570079484
C         5.28793882194835    6.61850769391302   11.15785618287463
H         5.13017524918100    7.61868377251600   11.52722666722479
C         4.85449923988163    6.32915293064828    9.87495886357465
C         6.42517466845378    5.96216898454777   13.35731915992985
C         5.75190678653843    5.01339799872155   14.36082756127203
H         6.15937136764960    5.17505973137201   15.35642953228601
H         5.91382952659780    3.97208925456800   14.09544761502409
H         4.67951029535177    5.19947129512729   14.40048869625904
C         6.13505597881220    7.39894171518054   13.79944196658514
H         6.63058591471128    8.11446632280397   13.14828471654186
H         6.50945211293367    7.54959790101026   14.80990483852865
H         5.06605893949467    7.60121544596911   13.80508201615035
C         7.94526805747339    5.75020562163545   13.38928340227115
H         8.42713625848735    6.39160687822195   12.65507196432990
H         8.20566622303548    4.72023835412024   13.16310227791451
H         8.33937107920340    5.99387268360153   14.37363956930228
C         5.87197239208682    2.67341219986215    9.57354720221332
H         6.79561980579985    2.24029928684323    9.96261375985118
H         5.93414481224378    2.74189142856890    8.47962128956858
C         3.61938489243372    1.68209071604387    9.04628036722035
C         2.52416059873537    0.86695341085669    9.39217798652085
C         2.52737577574037    0.19998438105498   10.60184388270576
H         1.67911577062975   -0.42473895414723   10.83866179877864
C         3.58552788686044    0.30298478273073   11.50440981387823
C         4.66492258169537    1.09975320723231   11.14080793744281
H         5.51408246946151    1.20069635387994   11.79761871851341
C         4.70294756137477    1.78484130879769    9.93527686953353
C         3.52698032171357   -0.46596061435659   12.81736421881818
C         2.27455063867875   -0.05324678277409   13.60531679778958
H         2.32424252897459    0.99836729752087   13.88373639975415
H         2.19773862797462   -0.64146968908753   14.51718178226445
H         1.36969437396379   -0.21001065787781   13.02541526349168
C         3.46541928878166   -1.96768992073942   12.50531723037208
H         2.57460157101333   -2.21522196218854   11.93522426288264
H         3.45280178900519   -2.54472214074687   13.42758810009456
H         4.33464833241605   -2.26440828958923   11.92291357683957
C         4.74827188784658   -0.21296298093486   13.70588809540164
H         5.66157330402310   -0.54076717716765   13.21602053204799
H         4.64475735904907   -0.77530420249025   14.63156628289892
H         4.83884503281523    0.84061801511058   13.96296701757343
C         1.35252211992846    0.80681338226705    8.43879733991369
H         0.87985585807729   -0.17592213447506    8.49221041172653
H         1.71468580121567    0.98377600943786    7.41490646230962
F         4.38219200525458    4.06940296294433    0.21300841520481
N         3.53442981374814    4.01996755490844    5.60815108394329
C         3.76890094373272    4.01932395253463    4.29294425342652
C         4.95653195793573    3.47974145630059    3.74536076006848
C         5.14902691585795    3.50300435314351    2.37605364325650
H         6.04811214722816    3.09709527294689    1.93703217877568
C         4.17824366108630    4.05222293154309    1.55925734183989
C         3.00231930082538    4.58335308305576    2.06354329964315
H         2.27098150764612    4.99849155598961    1.38635634437857
C         2.78941798579588    4.56933823718308    3.42579845557395
C         5.97342351584570    2.89872874645106    4.68410271393521
H         6.26291558056305    1.89601533143784    4.37352975465469
H         5.53797932107003    2.86098746376679    5.69075570285306
H         6.86941702158906    3.51886090205117    4.71191482479414
C         1.55325323730218    5.10842372369761    4.07961397598910
H         0.83511811387414    5.46823532810880    3.34693207968235
H         1.82798925596144    5.92370554450537    4.75854259868357
H         1.09868054786745    4.31734987840323    4.68978430494117
N         2.38150510601328    4.14894024770720    9.50509765776590
C         2.57064603191369    3.98607308425304   10.62834424469874
C         2.75260219730194    3.80062159990953   12.02235921293562
H         3.62693300698463    4.37114941392565   12.34422499846229
H         2.92039841598987    2.73856757246755   12.21733662884888
H         1.86526532379419    4.14293391491810   12.55387986651343

