88
CSD_code = BOBXOH | q = 0 | S = 0 | Stoichiometry = C37H46FeN4 | MND = 8
Fe       25.81653500747619   12.10598629072830    2.32772213439417
N        23.11824874547808   12.72070316211409    3.58619050074241
N        24.63785253538870   14.14534000369365    4.10722225574850
C        24.45159107468822   12.99450447001801    3.38006309272581
C        22.53681519896715   13.65777865613681    4.41698227516934
H        21.51067566633843   13.58909900324685    4.71502723133488
C        23.48957340534851   14.55012018509489    4.74320366207704
H        23.44983650898752   15.42175648478920    5.36459898084824
C        25.81636231427623   14.94438940770265    4.00209950645110
H        25.81634251005128   15.70287388856201    4.79352275736803
H        25.81620608064814   15.45290292634357    3.01804650030046
C        22.32422146337827   11.71010336819487    3.00363320728591
C        21.28347613860074   12.08734721646286    2.14425566942636
C        20.44888568663545   11.09920168010487    1.63928776437729
H        19.63820805689777   11.36858949305886    0.97946758156452
C        20.64963235255096    9.77249237265303    1.96065426282584
H        19.99431529414369    9.01352831024577    1.55881994770653
C        21.69510357753024    9.41167490479584    2.79136635226748
H        21.83427987428272    8.36783861052921    3.01812351840431
C        22.54392021593981   10.36558171172417    3.33242061781754
C        21.07198668596370   13.52128313206891    1.70944369930447
H        21.85707293807192   14.14780163857819    2.14082630997839
C        19.71769568086836   14.04770273969267    2.19142886884021
H        18.90282088696528   13.47921233277708    1.74971290668166
H        19.59938993270178   15.09182309601937    1.90908701815853
H        19.63449636277283   13.97358665389677    3.27351626409124
C        21.17659649889046   13.64486514639762    0.18671672226135
H        22.13072613656240   13.25586736384603   -0.15979064899464
H        21.10251945719733   14.69034117940495   -0.10658130811966
H        20.38136787810219   13.09469356181449   -0.31011717472565
C        23.67066774391639   10.00246085538523    4.27002065266943
H        24.56796352665554   10.55431375703291    3.93194241807213
C        23.98621218770742    8.51066835189367    4.27722661386395
H        23.13929626450235    7.93064660158976    4.63860476349603
H        24.81747744667961    8.32152401070518    4.94949232697850
H        24.26182901067089    8.16446553655077    3.28516375427628
C        23.33253463739045   10.44201697579313    5.69938679538763
H        23.17501285061477   11.51390519401863    5.76240116477260
H        24.14779807185123   10.18107799759878    6.37042986690574
H        22.42894969194993    9.93985142283656    6.04197214599110
C        25.11893462232280   12.54408741284507    0.38289582610591
H        24.56104288647091   13.40863800472670    0.04809430760008
C        24.44062407469783   11.35654952800489    0.74726839083713
H        23.36260746631667   11.32808572701847    0.67954936549614
C        25.12794895843809   10.12554853957879    0.90347243507645
H        24.55943499726380    9.21334259397625    1.01478658778358
N        28.51481301988094   12.72112755016066    3.58598889300837
N        26.99508802785115   14.14563155583670    4.10701357812105
C        27.18142346311400   12.99473563890622    3.37999441553170
C        29.09623501215263   13.65840466323719    4.41655639965170
H        30.12241741981402   13.58989806716746    4.71448350617795
C        28.14339290290593   14.55066487311043    4.74278029570135
H        28.18308918889062   15.42239617574860    5.36404247719674
C        29.30879007399579   11.71035161209667    3.00367503870594
C        30.34953790719439   12.08730330863233    2.14417893156666
C        31.18403457048886   11.09896540840137    1.63943139638107
H        31.99472226179689   11.36812759403815    0.97953325766281
C        30.98317790164611    9.77234771811186    1.96110991161956
H        31.63840200868108    9.01323103071066    1.55941401074221
C        29.93770449905157    9.41181441986256    2.79194481539831
H        29.79843981483332    8.36804302239755    3.01895112465809
C        29.08899955337762   10.36592609805904    3.33281016507186
C        30.56113136834787   13.52112155115382    1.70903367308285
H        29.77605232470681   14.14778260549651    2.14022772201253
C        31.91542493286550   14.04757310854360    2.19097821901596
H        32.73028938900254   13.47891433011522    1.74946325368598
H        32.03382177396708   15.09161356775331    1.90838262006395
H        31.99854843569717   13.97372255313439    3.27308786862249
C        30.45663682403841   13.64435866903620    0.18627038546056
H        29.50255661143759   13.25522818949168   -0.16023065267437
H        30.53067913932736   14.68977623540144   -0.10724877539040
H        31.25193940591356   13.09412658859050   -0.31038486103228
C        27.96229567740338   10.00315610609951    4.27059815154617
H        27.06501303486526   10.55499661449698    3.93245333083278
C        27.64659711808614    8.51140156572168    4.27825894087486
H        28.49351209680841    7.93137451744645    4.63963171910805
H        26.81544869933742    8.32255359671254    4.95075809295714
H        27.37074379032924    8.16496674162805    3.28634212889816
C        28.30060924016845   10.44306236968548    5.69981551742769
H        28.45829521997236   11.51494421121535    5.76252600106579
H        27.48536373314122   10.18242749985026    6.37099786857142
H        29.20414971521749    9.94085966039702    6.04246411560618
C        26.51430625220086   12.54386186245612    0.38272435589453
H        27.07237051034791   13.40832693956467    0.04798298716162
C        27.19239679350083   11.35622489055791    0.74715240071343
H        28.27041180843631   11.32753745841000    0.67948643330359
C        26.50485297389601   10.12539181488208    0.90348296700003
H        27.07319690215910    9.21305651543565    1.01477942736367

