34
CSD_code = BOBYUN | q = 0 | S = 0 | Stoichiometry = C16H12NO4Re | MND = 8
Re        3.21432137557083    1.22089081062129   18.32041116316640
C         2.19882461442039    2.50079822097043   16.58603881828650
C         2.97422629261946    3.38505387297788   17.40847701294097
H         3.74450029574127    4.04102920531528   17.03516847865112
C         2.40424735290339    3.40170843283971   18.69559002785823
H         2.67755070113469    4.06733268037464   19.50154866328316
C         1.29526079161232    2.50397182184443   18.70618452634663
H         0.56864639629310    2.41578812681950   19.50056443911139
C         1.16161907956319    1.96325407746707   17.40536153932067
H         0.33805785777080    1.35788906739217   17.05428295165303
C         4.87554729106150    0.79785928150728   17.39624261814098
O         5.82753832112242    0.62102244160157   16.78937414612958
C         2.67973662787977   -0.64798826121381   18.34125589699116
O         2.28406818712453   -1.72250173144177   18.31544066280799
C         4.05098629082978    1.04738219922620   20.06777500554375
O         4.50651621737449    1.02092499067982   21.11799943125980
C         2.31421325794558    2.34743066707104   15.15634928767729
H         1.62024601523001    1.62878223488396   14.69347326468588
N         3.14169556332583    3.04592799909654   14.49153293748382
C         3.32022591932545    2.89585539539181   13.13311038455828
C         3.58810751713726    4.03831752498204   12.37171486827256
H         3.59363715624117    5.00008240167724   12.86094140869743
C         3.80652664935579    3.93896294005375   11.01901035173115
H         3.99586567636193    4.81526023453836   10.41930336888833
C         3.79917641353410    2.69279501622756   10.38525097829334
C         3.57035809264147    1.54939034409153   11.14250284478217
H         3.58299087358433    0.56966457137556   10.69064728137993
C         3.32381025055090    1.65406370488575   12.49879268616150
H         3.17108713248572    0.75616073615269   13.08127609699672
O         4.03423272125754    2.70877535306239    9.04324268061464
C         4.03328325204134    1.48762548907198    8.34594456077523
H         4.22241554490815    1.74275833672735    7.30439099215188
H         3.06591635840954    0.98026372269695    8.42312066631895
H         4.82376391264171    0.81926809102864    8.70307995904163

