92
CSD_code = BOBYEY | q = 0 | S = 0 | Stoichiometry = C49H15F20N5O2Zn | MND = 4
Zn        6.52553684459906    3.14481831424939   14.85407031638910
N         6.76611856085707    4.91559553590790   14.19198505074603
N         4.77788928659477    2.86139005712992   14.22462396275102
N         6.35263097951065    1.80774273609085   16.18848700969600
N         8.31346157180459    2.54277523053258   17.11059630922603
N         5.80587449221103    5.15909277336936   16.99222186365438
O         7.18539729688441    3.39911231936952   20.97115403961804
O         7.94622557132687    2.14886682143639   13.60475736426941
F         8.88316708477712    6.07018395348432   18.79051737396026
F        11.51347014845878    6.15713860281980   18.29551078864705
F        13.08361862083706    3.97600987893011   18.79858178620934
F        11.94941668921331    1.68519745534201   19.75559237503996
F         9.28949638632987    1.57900829617378   20.19717598840079
F        11.59328105749212    5.54604772266571   14.51300309351394
F        13.34829426675818    7.48725886175855   15.16992661812929
F        12.49481533546083    9.72058851168349   16.48945336186689
F         9.85585530381750    9.98732604785458   17.12800284474118
F         8.10169714172530    8.02003505460492   16.49047529936499
F         2.11343907391609    5.76583083575185   13.07096987211516
F         0.74602295039358    6.98418476080136   11.07477818892099
F         1.94066978466121    7.40446649230046    8.65867713195804
F         4.50940880549692    6.57455494190143    8.25400838341037
F         5.85504908118319    5.31417596619641   10.23984323070576
F         1.56898247734353    0.98509812583058   16.16791744735609
F        -0.05484458377274   -1.16952330998344   16.40884329121700
F         0.91903912460616   -3.67247409732332   15.94203829296612
F         3.52810393819140   -3.99979522434891   15.21370830011454
F         5.13987454407070   -1.83566785340394   14.94266640357915
C         8.82143141406450    5.64661767742724   15.27378790503796
C         7.74107657400620    5.85683227220610   14.44741001980172
C         7.48361749192950    7.01042570227019   13.61988342136845
H         8.08127975796002    7.90052006041004   13.60222300695896
C         6.37692156183443    6.74519110039483   12.89211548750351
H         5.90302816420564    7.39147360424002   12.17921526270732
C         5.92022232994952    5.42223893465227   13.25384709504131
C         4.75841781092572    4.80658565827209   12.77773924360804
C         4.21770783960610    3.58143736947068   13.23634555615772
C         3.04344854386157    2.89843812834359   12.77221460841326
H         2.39758673080936    3.22063376079028   11.97887048732474
C         2.91890843004824    1.76844223534971   13.51853612224782
H         2.15212542097900    1.02309646893131   13.43423159734943
C         4.01126412217448    1.74740286796961   14.44890759346370
C         4.29887741434403    0.78853835537118   15.42072847281127
C         5.41158147503850    0.82710615344610   16.29133265335720
C         5.77997219387523   -0.01650038957334   17.36958928733462
H         5.24122253420340   -0.87630335784855   17.71714136644852
C         6.96183065254487    0.47406882418296   17.89946523200625
H         7.51360364052216    0.08857343028649   18.73284314706653
C         7.27656303688050    1.60351863644496   17.13802238596634
C         9.57622938032266    2.32054650268366   16.63060212995905
H        10.04884676257177    1.36582472697953   16.75464113352848
C        10.01383299488141    3.43355703699400   15.97586335060671
H        10.96116044322457    3.54232646821916   15.48917278930294
C         8.95865037512073    4.39101668117750   15.98592904670750
C         7.92678140034897    3.82658165374549   16.74157036664768
C         6.83954708729341    4.43926706612663   17.48801450110248
C         4.94150499841749    5.48938834704188   17.99065392067072
H         4.06475939140323    6.07192603406090   17.79216765278277
C         5.40372727675061    4.96630996345981   19.16046682108166
H         4.97244931549056    5.05163869291322   20.13629685659041
C         6.62811968014488    4.31016291619014   18.86656285290665
C         7.52149370114561    3.77851051730943   19.87505591911187
C         9.00368213916145    3.81775724755857   19.52014742836263
C         9.60700013418037    4.97411849686821   19.03602728818447
C        10.97470735677418    5.03509327239375   18.79206619393333
C        11.77679177442402    3.92786116975018   19.04418288508157
C        11.19531041497915    2.76285724886762   19.53507022133273
C         9.82400316225319    2.72114409501810   19.77284642595255
C         9.80593494747049    6.71637897879217   15.51653323706938
C        11.15551615469764    6.61571823774255   15.18997769707435
C        12.06606432110324    7.61575672604527   15.51082445861809
C        11.63145814619028    8.75671549790364   16.17743818663881
C        10.28384678360932    8.89103119240227   16.50197283871804
C         9.39205582289996    7.88013899418868   16.16865706767176
C         4.01674510546416    5.50153514846109   11.70517260517822
C         2.70445691482728    5.93761163753105   11.88482018689007
C         1.99898246110662    6.57493237314221   10.87020012812019
C         2.60776016916939    6.79390240853299    9.63729756895951
C         3.91893806661287    6.37209725966478    9.43371587666296
C         4.60289071634801    5.73410512342871   10.46123279924646
C         3.39519494570470   -0.37242816866801   15.55224796931965
C         2.05836633282702   -0.23077514269859   15.91903087179458
C         1.21969986310081   -1.33281940208939   16.05389501712725
C         1.71534035256291   -2.61235828375534   15.81812076976453
C         3.04784722208996   -2.77787835209833   15.44923491973157
C         3.86852089073306   -1.66331567954570   15.32378928176976
C         8.18734459908536    0.75312895556270   13.45271340400119
H         7.52961848470011    0.23304317342647   14.14558881523061
H         9.22672382659216    0.51552865486060   13.69192676398736
H         7.96044812230922    0.43021077828066   12.43434190969719
H         8.50906043942497    2.62717662823662   12.98418328782474
H         5.71100854796601    5.44939881913505   16.03121061450230

