27
CSD_code = BOCBEB | q = -1 | S = 0 | Stoichiometry = C13H9HgO2S2(1-) | MND = 3
Hg        2.45859947868482   12.45670955567768    4.24870269974826
S         1.62511691723057   10.17829239495678    4.91012388336435
S         0.58534311233060    7.60524899974850    5.77905683382568
O         2.29689122433759   11.51907797875879    2.20695653280918
O         1.79139222885400    9.75059388099654    0.97958823385054
C         1.89544746745475   10.32593439043588    2.05608084914026
C         1.49843587531125    9.51869915264803    3.30718210300560
C         1.04041728983531    8.26356354783984    3.10608454799527
H         0.99885498012580    7.94076715361307    2.07190652305681
C         0.60399124937679    7.30961041969688    4.06394531140188
C         0.14030102168039    6.04238106939023    3.78964024267214
H         0.07048538664729    5.65898428200246    2.78620442304338
C        -0.22581771357120    5.31593349962339    4.93430645222504
H        -0.60944251097769    4.30882935208569    4.90664859614440
C        -0.04235265844582    6.02526679141709    6.07979827082051
H        -0.23754275103206    5.71892939021519    7.08917223644842
C         3.11061277763164   14.60561186560781    4.16628837881748
C         3.33555472334927   15.43915830685576    5.26491235569535
H         3.20517689782495   15.05779878531226    6.27142226760528
C         3.72626707491420   16.75980420862538    5.10486183161630
H         3.89233030818568   17.38037405565165    5.97651528269408
C         3.90333779643018   17.28646872190311    3.83822631280031
H         4.20705442220100   18.31789471021282    3.71325605034303
C         3.68826031850717   16.48129539912669    2.73362355959194
H         3.82432387331096   16.88329606182351    1.73800531836893
C         3.29839120601066   15.16131796011348    2.89712141119887
H         3.13667000378653   14.54835806566394    2.01746949171854

