27
CSD_code = BOCBAX | q = -1 | S = 0 | Stoichiometry = C13H9HgO3S(1-) | MND = 3
Hg        4.18017935270755    7.12499968660892    1.34924842829569
S         5.05865715151558    6.35946755477483   -0.86910920629656
O         2.23848680541975    6.57965075213081    0.35016626754342
O         1.18100078824587    5.81446735473708   -1.43289042654520
O         4.12371163243025    4.52221898256802   -4.93389989509507
C         2.20243316212048    6.12047643329823   -0.83081786315159
C         3.53424473933461    5.91784596942917   -1.58589944162245
C         3.45232610265811    5.38147769162168   -2.82066103868631
H         2.45219756466065    5.14793131832742   -3.16578488533807
C         4.49734794968290    5.07175321441824   -3.74390417275910
C         5.86856371435327    5.19910432560784   -3.71691397084879
H         6.45034636492945    5.59799156557943   -2.91360777442547
C         6.34213677530591    4.70178012481296   -4.95002449752956
H         7.36307225808912    4.64592434692738   -5.27482643642657
C         5.24299372894982    4.30550325731445   -5.64762674480367
H         5.12557341560449    3.87115314414261   -6.62215484337548
C         3.94548495552261    7.80221431397182    3.48154946842668
C         2.65488685731238    7.77984038997047    4.01945436782132
H         1.82528745590114    7.45552916010905    3.40105940430456
C         2.40612954539186    8.16359601163128    5.32783528013467
H         1.39581896829905    8.13409102701990    5.71513507013865
C         3.44436588445668    8.58361418403055    6.14043915268822
H         3.25300201554120    8.88318767885746    7.16294152187767
C         4.73040123194794    8.61687002621623    5.63240561950885
H         5.55080359721473    8.94443789671309    6.25877946574005
C         4.97520318618381    8.23172087581793    4.32325240831181
H         5.99504479622486    8.26905271336071    3.95675474211213

