44
CSD_code = BOCHIM | q = 0 | S = 0 | Stoichiometry = C20H18CoF4P | MND = 7
Co        0.97628433527167    4.49384195183299    2.95117584195113
P         1.29055250106921    2.44733078970539    2.20651845155033
F         2.27032716177167    2.90155344345078    4.83945168222532
F         2.99202697335740    4.58146051336753    6.49583571807223
F         1.09862954630600    5.57093061373449    6.23804649817779
F         2.80088375421630    6.19682584472233    5.08727800658780
C         1.26559343477578    6.44753429792093    2.19914289663927
H         2.14355543072643    7.07276856757002    2.17932929118474
C         0.29183603920765    6.42352703058191    3.23326721987653
H         0.29594487195185    7.05100388854564    4.10971073368849
C        -0.79551382651016    5.61469252837320    2.80372232797873
H        -1.74311878288701    5.51164574970950    3.30786977210827
C        -0.46003037891339    5.09404022563458    1.54122375249397
H        -1.10864611108597    4.51705297446451    0.89954968887709
C         0.81121176338138    5.60466210800389    1.16704055196157
H         1.26932547847713    5.47810819529317    0.19817345867713
C         3.01842378893883    1.89103733834617    2.05134743014099
C         3.32355162360732    0.58657423023116    1.67620078122217
H         2.53112179200245   -0.12132916546654    1.47995445168397
C         4.64327945830880    0.19664810291076    1.54476042768721
H         4.87742072934468   -0.81809413703932    1.25780551004903
C         5.66485005507540    1.10354546947270    1.77931817313430
H         6.69428549762688    0.79321669298232    1.67893073267076
C         5.36527057503127    2.40685940180159    2.13858405974914
H         6.15955750241135    3.11620381838883    2.31713739624083
C         4.04539485564741    2.80004317467332    2.27069389720471
H         3.79436027359047    3.81689070608273    2.55161703791589
C         0.70068635347445    2.16322942061422    0.50609892418042
C        -0.58991552952811    1.71277694483286    0.25203450650898
H        -1.25283293440102    1.48141461295958    1.07333347830072
C        -1.03149755874487    1.56632383425784   -1.05105372494324
H        -2.03400705657904    1.21170608860390   -1.24190165430915
C        -0.19398154051096    1.87786237994342   -2.10922812539493
H        -0.54147918922277    1.76403729302574   -3.12522015144579
C         1.08791937786825    2.34214145434174   -1.86174214862139
H         1.74080184425542    2.59206040675246   -2.68518718503238
C         1.53185477157312    2.48991887029799   -0.56102728021051
H         2.53021070615819    2.85600495184271   -0.36277529027835
C         0.50007787948958    1.07387240364470    3.13040478948503
H         0.48478438079902    0.16241506507105    2.53444490472781
H        -0.51687696778848    1.36193384478475    3.39223915784283
H         1.06083810325322    0.90985761948548    4.04788056790992
C         1.80135930772070    4.13300298738074    4.46903475601950
C         2.17547970951411    5.09976746692195    5.56917868550216

