55
CSD_code = BOCKUZ | q = 0 | S = 0 | Stoichiometry = C20H28FeNO4P | MND = 5
Fe        8.83520681966699    4.29601988687986    3.07214847400296
P         7.38122234114596    2.66987188082923    3.58653272816302
O         7.51084211775662    6.79336922182077    2.35809964745213
O        11.47360576925992    3.15042447681002    3.53821220719736
O         9.46565012086453    4.08406025847890    0.23875359231775
O         9.19728568813121    5.50223155599887    5.69389634920345
N         6.11693658625037    2.17884918493630    2.58549171384950
C         8.94927652842104    0.30060151677884    3.33598110425136
C         8.20002702563499    1.10203687192453    4.11521300334920
C         7.98647478860843    0.91672228118040    5.53478714029015
H         8.45795203795428    0.10618514344596    6.06693594194922
C         7.18713562803818    1.81480223550593    6.13092100813102
H         6.95691984031769    1.78957337563384    7.18391355873743
C         6.65342405810873    2.84973086624104    5.27446367043321
C         5.83646765144467    3.84164120962179    5.67417830593102
C         5.33682216421345    3.95016145356744    7.08731887974075
H         4.58790348225577    4.73404348804499    7.16811283376586
H         6.15872807592988    4.19338487981884    7.76093662787037
H         4.89568739833028    3.01311755350204    7.42360685657877
C         5.38290222977602    4.91748507741867    4.74534718393591
H         5.74604612336322    5.88565941101950    5.09452939709332
H         4.29309662153251    4.96966301824883    4.71739762573040
H         5.76118808058208    4.74399644813185    3.73916241546227
C         9.19011556898736    0.59464574108169    1.89461181038035
H        10.26219985496403    0.63783425319166    1.69776578578715
H         8.74260702732751    1.54835827031516    1.62071239625888
H         8.77346124970741   -0.19415409828501    1.26597856418071
C         9.62016182089885   -0.93697239255308    3.86062145233966
H         9.96551172181308   -1.55876727978594    3.03822566435368
H         8.94620703260145   -1.52462612531045    4.48063721282929
H        10.48506230050153   -0.66644360487799    4.46733536078299
C         5.82582415405130    2.93684289481848    1.37062982142290
H         6.49886900546182    3.80626016186149    1.42965262919220
C         4.39661062853694    3.47176950211356    1.28362600797635
H         4.09263263882867    3.93222237657773    2.21855540701824
H         3.69503514480151    2.68177088073630    1.02960965534147
H         4.35006869877411    4.22455332744980    0.49968215792931
C         6.17470664181559    2.20486083526600    0.07007345143542
H         7.14915101286773    1.73206379945141    0.14172217637550
H         6.20896861391621    2.92935391035416   -0.74069904908089
H         5.43694667369722    1.45067303994909   -0.18407793256082
C         5.31722758488000    1.05299667163400    3.07371259296990
H         5.91268843673498    0.63917113896861    3.89777370532076
C         3.96275312971934    1.44688589565950    3.67001773023576
H         4.07221042377125    2.31492993713427    4.31295635229608
H         3.58908163658995    0.62057355057166    4.27111950276192
H         3.22725436041352    1.66339011112824    2.90230441872191
C         5.14064752409585   -0.06381447983201    2.04780236070628
H         6.09074331959426   -0.30520240401531    1.58046500416113
H         4.42251178829849    0.21142490539141    1.28063769096022
H         4.76830552032125   -0.95305300098737    2.55188351816746
C         7.99298490499368    5.78792875569619    2.64107045579801
C        10.41973171771010    3.56948332967376    3.35722369960544
C         9.18661052787709    4.13315563942038    1.35297045199239
C         9.02920815781960    5.00585316130633    4.67245967895253

