33
CSD_code = BOCKUA | q = 1 | S = 0 | Stoichiometry = C11H17ClN3Pd(1+) | MND = 4
Pd        1.95386772477172    0.92091578415605   10.06599934801739
Cl        2.23308366462458   -1.13494417898243    9.23432259899378
N         2.32557915153699    1.96462768130015    8.35230773454752
N         1.76439989376975    2.69418205924314   11.12528486184136
N         1.58694337460496    0.03441596516710   11.89319194525546
H         2.13484183382876   -0.82484382555158   11.99993994640273
H         0.59792927054032   -0.23001882366231   11.95801024716102
C         2.38342597689549    1.29233603463400    7.19961161922141
H         2.17612080360242    0.22934726624400    7.24613489966110
C         2.69871168875699    1.89134159683570    5.99197661580876
H         2.73060882397819    1.30015825832539    5.09197193014459
C         2.97201791803934    3.24660217299571    5.98015435411028
H         3.23359010862659    3.75588019484033    5.06601531305071
C         2.89515989732211    3.94828497447155    7.17320643824625
H         3.09529745287945    5.00506048885872    7.17311825500764
C         2.56217654812449    3.29410106511940    8.35331441681062
C         2.41006902275297    4.06628430552931    9.65456926732498
C         1.06525428191028    3.72612191162490   10.34906531389860
H         0.71316415915532    4.55437051512394   10.97081725064699
H         0.24625656187884    3.34628497889456    9.73040184039419
C         3.06010559614431    3.34756992242029   10.86462782970217
H         3.89776511612460    2.66288610696826   10.66839734079341
H         3.33471612953827    4.05681104131218   11.65196920556179
C         2.72392074313563    5.54900574373392    9.54840738394140
H         3.75146273561400    5.70654876828102    9.23106419963693
H         2.59888020336368    6.02293628195530   10.51904629742910
H         2.04997190212139    6.04041751550685    8.85166800484834
C         1.34454948943400    2.39357839686760   12.49062270576540
H         0.25022267521601    2.33555220526120   12.49686415999196
H         1.65743504790255    3.18188005674311   13.18790194292112
C         1.93702455039254    1.04126294634718   12.91091925633795
H         3.02978756588873    1.11735334450749   12.95787838193612
H         1.56666008752649    0.76278924492077   13.90481909459769

