55
CSD_code = BOCMOY | q = 0 | S = 0 | Stoichiometry = C24H22Cl3FN2ORuS | MND = 9
Ru        2.31433093882426    4.70984707039741    7.50325632847305
Cl        4.49810998030809    4.41045237950588    6.73088288077380
Cl        1.83553753563088    7.71963406021385   11.22787815357296
Cl        3.67497452433576   11.12622263945459    7.50530661927836
S         2.52670144853502    2.49897790032231    8.52602444726072
F         3.50229164935188   -1.74514998457554   10.87554798621310
O         4.33777385873103    5.57962638038189   11.20646118289653
N         3.91141706185060    3.03106060591693   10.83292124898118
H         4.30199279317556    3.83127060431347   11.36155819194784
N         3.24367960176641    4.74211559753031    9.37600643243470
C         4.13971804759894    1.76902895208574   11.36728944251495
C         3.67201055787568    0.59000285582243   10.79581648697038
H         3.10246549854728    0.58667744236303    9.88260591272847
C         3.95869236702614   -0.60555254970933   11.42788203426405
C         4.68714109421588   -0.67743385326192   12.60058911593040
H         4.88540087670248   -1.63399159507948   13.05567405540212
C         5.14526376914384    0.50513367341572   13.15824375797645
H         5.71772075091520    0.47857383849274   14.07233879541360
C         4.87620226605389    1.71633879652838   12.55326238283386
H         5.23679154838029    2.63469818873949   12.99163987782056
C         3.31002640984162    3.43349334038122    9.71461918943313
C         3.81217474224406    5.72769003353438   10.10882427113722
C         0.06587656064422    5.04726420003039    7.67640984262879
C         0.37652917525151    4.30710534173387    6.50621466177202
H        -0.12751982081080    3.36081384896053    6.33055065217003
C         1.25514515060927    4.81083689186732    5.52437905546110
H         1.41497700587912    4.25745064879016    4.60502227966424
C         1.85634687019963    6.08817302005004    5.68671940797269
C         1.57419428767010    6.81733536054458    6.85771296467951
H         1.97213214656416    7.81797023721297    6.97551592499672
C         0.71549257516899    6.28594195502661    7.85160496780521
H         0.47970306388628    6.89765263402349    8.71435205147641
C         2.77696512694224    6.63030722402725    4.64010168409324
H         2.39641747493244    6.42012075013354    3.64244599563457
H         3.75014057364493    6.14346183773886    4.73963818355733
H         2.91642553817864    7.70207426501277    4.75895415793347
C        -2.19205635347488    5.46389601118724    8.63678957683788
H        -1.93527619948151    6.46645860545341    8.97081948602822
H        -2.96150056270811    5.06953842212488    9.29563866450247
H        -2.59928857260669    5.52862201545780    7.62983404649277
C        -0.96270145958805    4.55054081685142    8.66448799132551
H        -1.27164896869683    3.54445522545933    8.35861929469670
C        -0.38190385843131    4.45800660258179   10.07682883696057
H         0.49430111288323    3.81069269394101   10.07892683771731
H        -1.11935467060673    4.03739902681761   10.75596694849234
H        -0.09247942480386    5.43739283075142   10.45002866855795
C         3.74639336173513    7.06733479854705    9.43946927377719
C         2.89810801389513    8.06287775878664    9.91197288434705
C         2.86813629610647    9.31662689052614    9.32299195576317
H         2.20156271538087   10.07890988101858    9.69302716034470
C         3.71155572336155    9.56947264351407    8.25145321596267
C         4.56868312387727    8.59218185725142    7.76645758251945
H         5.21666582648829    8.80397021219813    6.93132211438617
C         4.58162557044774    7.34356538198214    8.36222862427233
H         5.23853527635719    6.57153373372175    7.98938621294947

