29
CSD_code = BOCPUF | q = 0 | S = 0 | Stoichiometry = C10H13I2N3Pd | MND = 4
Pd        2.89575122167713    7.05104293478888   12.83012631036414
I         1.62854213373987    9.15576364501069   11.96614296992741
N         0.34923513784866    5.95510363547225   13.85892559191138
C         1.20292456179903    6.07057436310672   12.83293447232050
C        -0.72512627063351    5.19201142481304   13.48035244092805
H        -1.53267375624581    4.96895916985751   14.14636863631401
C         0.57699462462405    6.55004115360795   15.14966722543985
H         0.68418441152640    5.77787070357278   15.91445884855269
H        -0.24566521965694    7.21576564276324   15.41629125529796
H         1.51294883731840    7.13556520637475   15.09662684198826
N         4.62635798802732    8.05153474721857   12.83039673416886
C         5.43601954389927    7.98922677106001   11.77890741863620
H         5.09916265035607    7.37665069101901   10.94096223867264
C         6.64459003355223    8.66072064962548   11.74066495780739
H         7.27563243031109    8.58775638906785   10.86931982691135
C         7.01924884621730    9.42074586459902   12.83823844245061
H         7.95575053804398    9.95706366690545   12.84112416805985
I         4.08554439106215    4.90057956443699   13.69287648774584
N         0.67535400159355    5.38755908969798   11.80835869379189
C        -0.52049673850280    4.83592440960264   12.18977341799196
H        -1.11752224905651    4.24650758351539   11.52526950359170
C         1.30527697060268    5.28273625547208   10.51835974176217
H         0.68872246561267    5.75381858209235    9.75005763249664
H         1.47538984776116    4.23654337476802   10.25862146816941
H         2.27797255104637    5.80504495463274   10.56869136255522
C         4.97741299727932    8.77872385754570   13.88544347958095
H         4.27501861939106    8.79539072369338   14.72056687280838
C         6.16843020212550    9.48037957062733   13.93151505694300
H         6.42071922868037   10.05939537504936   14.80545790281160

