27
CSD_code = BOCRUG | q = 0 | S = 0 | Stoichiometry = C12H6N2O6Zn | MND = 6
Zn        0.00082043892855    0.00023875024833   -0.00075782277384
O         0.86957288556077   -1.14358930465619    1.61195316267513
O        -1.20940536233228   -1.41592138312645   -0.31526780267764
O         1.47994126981788   -0.79255704353914   -1.37019091778338
N        -0.20449336815396   -5.80666794347053   -1.25177634530770
C         1.19350930914606   -3.45012819681335    0.82714019718990
C         1.15403016933230   -2.27329212534602    1.39451757191654
C         0.13121837969973   -3.52755971809585   -0.14772795517319
C        -0.97619772192516   -2.65256755762639   -0.37099880414098
C        -1.59622018805681   -3.89072919234959   -0.24923717700468
C        -0.48151704162849   -4.78506728557397   -0.71314884707180
H         2.27803977802107   -0.25568147071730   -1.28951909864125
H         1.21897802487344   -0.78827006922476   -2.29842083584241
H         1.83199036223623   -4.28169704758952    1.04845257008253
O        -0.86819427713791    1.14393862407374   -1.61301730616324
C        -1.15426040293310    2.27303740811222   -1.39444805402528
C        -1.19472418052019    3.44949388393011   -0.82637411916872
H        -1.83421587566367    4.28049405738213   -1.04670842068087
C        -0.13206872152498    3.52737010050290    0.14812212826208
C         0.97622802471173    2.65321583935757    0.37043685117377
O         1.21053220014808    1.41679990115074    0.31400359020518
O        -1.47794993109141    0.79261305642448    1.36975536072238
H        -2.27616111019471    0.25589407760421    1.28902374499007
H        -1.21632713646612    0.78725021941939    2.29790570943695
C         1.59505990039304    3.89203334617933    0.24908762690512
C         0.47983713643961    4.78516292137308    0.71393685265221
N         0.20197743832199    5.80618615236710    1.25325814025089

