55
CSD_code = BOCTAR | q = 0 | S = 0 | Stoichiometry = C22H20NO9PSW | MND = 6
W         7.48655490382183    8.08140137620428    2.47709108645511
S         8.93699818969575    5.29918329941757    5.02593054115904
P         6.62760138145138    6.15348319803927    3.66233918466987
O         8.72419784425011    6.68305229387270    5.34170624581418
O        10.22652866691677    4.90797165811291    4.55983909862419
O         7.41703119607399    1.34186767141210    3.60498424544007
O         7.77906480325464    3.02513169225753    2.16625862352407
O         4.52270579254451    9.06224443709651    2.14552891101510
O         7.30378231251507    6.31882660709199   -0.11165025877543
O        10.47173599361524    7.14523523186375    2.76440197817458
O         7.72972705154429    9.58044362064059    5.22807955977163
O         8.54584210976539   10.57283912891963    0.91104766641344
N         7.73658757451850    4.85710913870337    3.93379037670235
C         5.78962089317821    6.08140905568571    5.27058239236786
H         5.79834692873038    6.87782493885241    5.99564562322842
C         5.26453664523063    4.86392662870482    5.44471629509590
C         5.51540297202565    3.96085474004307    4.24964381470201
C         7.06443713068522    3.63024048279985    4.32216166026257
C         7.52347361050502    3.25414312621572    5.71094246927947
C         7.13619935986466    2.13300729342807    6.42864572292903
H         6.48968802438902    1.39656372512560    5.97987707153457
C         7.62442821963063    1.93403979754804    7.71702959360263
C         8.49857794700467    2.86529873183239    8.27359122739885
H         8.86838778026313    2.71061281844362    9.27594003793462
C         8.92602920996355    3.96389014107313    7.54690237601533
H         9.63506860654572    4.66859749363454    7.95028043122877
C         8.42833972358084    4.13743117055952    6.27360887571417
C         4.54708944246356    4.38588328317453    6.65887390088543
H         4.51272223158147    5.17319893434135    7.40717278509843
H         5.04645506872331    3.51663241986874    7.08465203036609
H         3.52754509429753    4.09840801948015    6.40510830541313
C         5.43464275994830    4.89965987846348    3.03535886363697
H         4.43299569998248    5.31064052910786    2.90516818105737
H         5.76864661865740    4.43616207615440    2.10718323349337
C         4.60609517638033    2.75091423823394    4.14367847413094
H         4.67029481040070    2.12120357415814    5.02546163202052
H         4.86430375234738    2.15043980904651    3.27496198520584
H         3.57648723118614    3.08581610652659    4.03208761543871
C         7.44234355983742    2.51381800833358    3.33338879730017
C         8.31028590298962    2.13930180884403    1.17369633219752
H         8.11989101910723    2.64023817834333    0.22274362301647
H         7.76879371993619    1.18840372172743    1.21627796868137
C         9.79899698427151    1.92504773980013    1.39636064832957
H        10.30592046016299    2.88490332650670    1.45790098168702
H        10.21369973532587    1.35080960229545    0.57285919842615
H         9.96496397124272    1.38436955434695    2.32516256570917
C         7.19898505270253    0.73700915554022    8.50848590644860
H         6.43507933677293    1.02119449720205    9.23261032447413
H         8.03974784914591    0.32290679865740    9.05954016853889
H         6.78783774947222   -0.03153855067286    7.86005747592419
C         5.60597617842911    8.71324651229305    2.26735324146121
C         7.36408310388676    6.99783949104100    0.80643902402137
C         9.38047503191286    7.45250762623445    2.69237095721936
C         7.64190141075899    9.05600023398857    4.22302507617938
C         8.16154617648910    9.66295392939464    1.48760585335945

