54
CSD_code = BOCWOI | q = 1 | S = 0 | Stoichiometry = C22H28ClN2Ru(1+) | MND = 9
C         1.82813335884077   10.38030955390909    3.52497011357515
H         0.91401762011298   10.95410040228296    3.70746109593529
H         2.53162777577627   10.99571608219018    2.95371417929742
C         1.51896288322891    9.09766289382424    2.75733848087272
H         1.03905278625241    9.31375004047579    1.79671895996575
H         0.84730609795488    8.48000670445685    3.36027097833230
C         2.75310991773044    7.09764003854547    1.95359322904180
C         1.65227838587910    6.28017408249760    2.06016447252858
H         0.76496026333234    6.60108873246888    2.58144008390977
C         1.64310806145296    5.00116226101613    1.48672165475850
H         0.75900914718974    4.39142130743513    1.58623374464624
C         2.73267249258957    4.54165640469111    0.80540067412269
H         2.72846087910969    3.56044853479083    0.35669733451077
C         3.88500511583118    5.34468227172854    0.67137868032788
C         5.01617998747464    4.87434788433194   -0.02837916157084
H         4.97625296073478    3.88724806693868   -0.46356064815806
C         6.13546980065465    5.64786867296330   -0.15529943061977
H         6.99569786042281    5.28289680427789   -0.69435355774149
C         6.16813611137693    6.92508666671039    0.42072683351179
H         7.05614600221357    7.53004045574573    0.32199844980193
C         5.08834178407743    7.41351514417181    1.10749817787625
H         5.16956514521965    8.39679687674109    1.54865462715977
C         3.91195305172565    6.64449732680438    1.24955222032625
C         3.27429505452148    6.28987764712247    5.25271462316443
H         2.41761762832911    5.65213739715097    5.06870812692844
C         4.44837303861087    6.11721975185796    4.47893377823497
H         4.46502746996351    5.34832785882621    3.71333720005980
C         5.62280466477443    6.84271640617940    4.74676760360421
C         5.58665110726056    7.78356743268376    5.81657797806344
H         6.48589369185450    8.32894324607193    6.07657892369764
C         4.43629757132134    7.94959708669029    6.59519596205139
H         4.46380975018262    8.60058213047514    7.46353610646052
C         3.25558043297137    7.19495326518462    6.32662738859654
C         2.07408823890263    7.28085331002095    7.24398268575021
H         1.99899795953464    8.25907386062556    7.71525748516919
H         2.19101525182268    6.54323933769972    8.03954906593562
H         1.14599221837468    7.05616152730741    6.72200113634565
C         6.90550836683990    6.49147020235822    4.03420002697894
H         6.64387935885194    6.04983176002668    3.06598308575253
C         7.81621626713697    7.69292069063535    3.78725650526400
H         7.26111247225924    8.51236575982885    3.33811647102993
H         8.61535550283396    7.40869487367654    3.10870524592408
H         8.27295836070856    8.04192710437963    4.70994148345989
C         7.62929676935234    5.42808464615217    4.87196617002787
H         8.54709645480971    5.13303453311910    4.37152112345243
H         7.00726670714385    4.54529920106016    5.00268756395984
H         7.88406553703596    5.82147614046299    5.85369807356590
N         2.48416645910539    9.98342361857608    4.78354422609805
H         1.77711379976886    9.72355447329422    5.47594114723472
H         3.00731095723761   10.78112247786185    5.15543985695381
N         2.79494236116940    8.39205599711314    2.56108379652469
H         3.39063490798870    9.00138480925898    1.98393872511841
Cl        5.08456919076901   10.12103136498444    3.47343080831865
Ru        3.86441495937736    8.35645488028881    4.43063643386890

