47
CSD_code = BOCXIC | q = 0 | S = 0 | Stoichiometry = C20H21Cl2HgN3 | MND = 4
C         4.13466442706834    4.14619764127774   23.84292441441664
C         3.06850409797562    4.82533386041444   23.21625890771891
H         2.82373271167262    4.56486490731306   22.19004683906644
C         2.36705619070698    5.78486652086493   23.89085694846424
H         1.55077217623600    6.29913517290261   23.40671673151335
C         2.69637683103724    6.11268934202021   25.21671979472565
H         2.12871571637447    6.87410044223791   25.73005427446736
C         3.72587082592987    5.47436966144323   25.85230790948617
H         3.98600695510393    5.72023747300621   26.87173507838861
C         4.46762132968614    4.48009142935122   25.18713871798471
C         5.53734943421247    3.78178240639730   25.78675130014547
H         5.81320947948605    4.00956450637789   26.80665143952457
C         6.20330673846757    2.83162213520295   25.07000368488764
H         7.02441904189443    2.27923227195840   25.50122771899252
C         5.81246488782631    2.55760655941308   23.73561438129324
C         6.53252890228186    1.54917132702697   22.98956248302537
C         6.88478457494419    0.30233493983580   21.02960412097167
C         8.09529596700290   -0.32253904667298   21.37589422534056
H         8.59316293486251   -0.07394847119502   22.30093122675331
C         8.69160031858954   -1.23191439656027   20.54184060855779
H         9.63211016258764   -1.65705561489393   20.85142442327234
C         8.12039941566610   -1.59397911897256   19.30293679178895
C         6.90794385044376   -0.95977494616688   18.95862334645108
H         6.41071433544345   -1.19419459600868   18.03292074858704
C         6.32334771442261   -0.04351409313102   19.79032568677554
H         5.38547401470657    0.42404826681678   19.49761490984807
C         9.85386737885895   -3.28596300056034   18.89344440638239
H         9.81676539199925   -4.23669389179738   18.35510240914784
H         9.77786887998950   -3.51460825591916   19.95871398392688
C        11.18099380822920   -2.58753721713178   18.59332263028943
H        12.01072460608537   -3.21210110711473   18.91325232269143
H        11.23966046292598   -1.63344857533246   19.11036932686299
H        11.27959682280206   -2.40116383029087   17.52662076875541
C         8.23520991665918   -2.74255731194883   17.13594922436168
H         9.08983718538321   -3.05833674464373   16.53172841545096
H         7.86074479497282   -1.81147162879973   16.70584779045413
C         7.15391856939125   -3.82254300734410   17.08711655416908
H         6.82972825741282   -3.97637884781901   16.06153445247340
H         6.29445050061347   -3.53445553709792   17.68634534221706
H         7.53761662067712   -4.76402324106299   17.47350317633252
N         4.81082229549604    3.20340162983481   23.15892933938256
N         6.21758445755963    1.23232200082367   21.78486946741543
N         8.71118106035526   -2.49918630819687   18.48172078066104
Cl        4.75286965876399    3.84171676699715   19.32376488393415
Cl        2.50029016972850    0.89683931378891   21.48053508316759
Hg        4.16796908740071    2.37548136274127   20.97354548728198
H         7.35536704007809    1.07447885060608   23.52619744218934

