55
CSD_code = BOCZEB | q = 0 | S = 0 | Stoichiometry = C20H20FeN10O2Se2 | MND = 6
Se        1.67564954081959   11.59091327080265    9.36436271125527
Fe        3.00748093852412    9.39722138627717    5.56100211361043
O         3.27509342168120    8.23099024611713   10.06683436785005
N         2.15255096538782   10.72934573298496    6.64243893294787
N         2.10549433062765    8.10218992902960    6.66740318139217
N         1.18175284251834    7.19308449477021    8.46436783368716
N         4.43655145840842    9.50908678510642    6.92097547449643
N         5.24337211010038    9.94671718462732    8.93365163800378
C         1.96630648700286   11.10349057442715    7.73523759404041
C         1.03888302062623    7.35826800387106    6.28926351939364
H         0.75312761136091    7.27512813655549    5.26104016150623
C         0.45686673784456    6.80009548667716    7.39409718547731
H        -0.40648292031826    6.17263687275477    7.48691233592502
C         2.19267349819660    7.98105299992342    7.99879475757455
C         3.22911798720282    8.51373037246077    8.87003943145823
C         4.25568490656222    9.32734335542146    8.23424847034422
C         6.06868686182591   10.52304196430036    8.03204633693660
H         6.92709788416120   11.09317774666033    8.32405416546850
C         5.56799555767425   10.23687272983877    6.78985992732941
H         5.93312989697411   10.52487384158061    5.82583731611700
C         0.89043521200937    6.88075487663701    9.83465625303509
H        -0.04927562215410    6.33341315880924    9.88089311099893
H         0.81277645366105    7.79983935282545   10.41599007890084
H         1.69123790060900    6.28143721943579   10.26899939894779
C         5.33663331407069   10.06765626040353   10.36026816486240
H         4.41249137697024   10.49774624914495   10.75090500162066
H         6.17542653749567   10.71487454012490   10.60796588212555
H         5.46913116859615    9.08846069785324   10.82040720244145
Se        4.33614122233863   11.59440236861044    1.75857007510857
O         2.73925300478907    8.23090333451326    1.05516389436072
N         3.86195538708944   10.72966062839576    4.47984101702593
N         3.90959810355031    8.10244849527593    4.45438049648858
N         4.83252393660750    7.19260293980555    2.65736981765915
N         1.57825078250686    9.50902267062568    4.20116798581109
N         0.77107589051826    9.94658520364027    2.18861757544762
C         4.04701836537068   11.10528241643821    3.38735638673094
C         4.97625296373274    7.35851665111495    4.83236419080431
H         5.26241990689751    7.27571500836012    5.86050143445186
C         5.55775394802466    6.79986373053525    3.72749946599115
H         6.42094189094862    6.17220058001886    3.63456234301920
C         3.82191670302015    7.98091996436957    3.12305844198561
C         2.78533878756204    8.51359441299636    2.25196820645115
C         1.75890323138444    9.32725694547516    2.88786891526551
C        -0.05408823623925   10.52291941714319    3.09034326380341
H        -0.91256494197303   11.09302681315948    2.79847556943582
C         0.44682309783566   10.23679535953993    4.33245481079263
H         0.08184977270093   10.52482292577892    5.29653125222884
C         5.12312583525428    6.87944934613775    1.28711253922549
H         6.06264605159259    6.33178601438577    1.24074154189124
H         5.20078311147810    7.79816995964772    0.70521128332082
H         4.32194369428895    6.28011509530011    0.85347850692211
C         0.67753011302301   10.06745614724114    0.76201418921852
H         1.60152223453354   10.49770754619835    0.37119820050562
H        -0.16142284165191   10.71451772565681    0.51444914055544
H         0.54511850638824    9.08821483021039    0.30194690774604

