98
CSD_code = BODBAY | q = 0 | S = 0 | Stoichiometry = C38H55N2NiOP | MND = 4
C        -1.01998407287527   31.98114771076271   18.06238684782531
C        -0.60242955962296   33.21132226119726   18.80359647487651
C        -1.92942605174677   31.12124189639064   16.07048282270724
C        -1.13124557701054   30.55283851290406   15.06587052272370
C        -1.67830667532663   29.59121001791160   14.23313199966823
H        -1.07477996506605   29.15309033357482   13.45221977613634
C        -2.98734127575515   29.17574120427315   14.39021466489850
H        -3.39631098933783   28.41321015351241   13.74281285460054
C        -3.77281559345064   29.74677666009686   15.37378248852755
H        -4.79552788693475   29.41921964643856   15.48876428956854
C        -3.27064687563036   30.72981140943351   16.20992398251670
C         0.29202743627535   31.02890117322441   14.88145323478641
C         1.26550139581796   29.89376914840546   14.56097144630252
H         1.12237585282610   29.05868962568136   15.24368653576807
H         2.29185995811221   30.24581428381014   14.65154841630051
H         1.12451552416440   29.53418608609089   13.54471476614192
C         0.33021040934913   32.09233810651192   13.78000216001824
H         0.01452101182681   31.66182144074846   12.83189469689683
H         1.33726174605140   32.48983630580229   13.66463379765679
H        -0.34417810866986   32.90975398914905   14.02460437808782
C        -4.13883714510095   31.36507963027218   17.27198678741617
C        -5.51934332895825   31.75084004652916   16.73898397616499
H        -5.42388165236623   32.33894349018080   15.82871133026153
H        -6.05186911541971   32.34427570990373   17.48051236431770
H        -6.11881320839450   30.87052327200988   16.52070213721113
C        -4.26388187665596   30.42740698704595   18.47502525473947
H        -4.73707846700659   29.49211542327809   18.18147657595774
H        -4.86528759147649   30.89282152898276   19.25490740675133
H        -3.27868729755044   30.20142857478518   18.87761060643103
C        -0.68824643444714   34.54455109176959   18.13220301889280
H        -0.52863716226886   35.33951565618370   18.86544314736467
H        -1.69098663914042   34.63371583548423   17.70871665040794
C         0.32214668365712   34.67817994294845   16.99144123035808
H         1.34159399710237   34.60865556840155   17.36374001977610
H         0.20019127165631   35.64332212763936   16.50565545774184
H         0.15146181809763   33.89278157183542   16.26207524263820
C         0.16244055424714   34.08360956972751   20.85394897456389
C         1.51600538469016   34.44786501066032   20.91256695575599
C         1.89702706616992   35.43538616149816   21.80683273437801
H         2.93393575881964   35.72222546722580   21.87742428855289
C         0.96659099915100   36.06878846851329   22.61028011488584
H         1.28192802186895   36.84090062048257   23.29621281185182
C        -0.36518296042390   35.71449499301492   22.53130288298651
H        -1.08746334349787   36.21945113034094   23.15430020766788
C        -0.78877559186175   34.72017042706205   21.66094739687873
C         2.53295128764483   33.73398986193369   20.05042302984865
C         3.70316621434384   34.62571443758312   19.63646017924758
H         3.34590521481021   35.57642341074181   19.24597120780567
H         4.28426272751147   34.13188699271299   18.85989849976212
H         4.36745117026355   34.82029723395239   20.47472126987744
C         3.02998810144368   32.49181346324711   20.79516915580366
H         3.42428820774028   32.76439834878290   21.77160438148709
H         3.81497735580195   31.99722118218992   20.22648717769643
H         2.19613270632592   31.79477809773791   20.93075172788863
C        -2.25410674109741   34.35240231820325   21.58547237034644
C        -3.07181727316273   35.51396439738439   21.01506505458741
H        -3.00398451722149   36.38593146172504   21.66146454416070
H        -4.11849322160761   35.22900522746580   20.93143430822352
H        -2.71158593699202   35.79123890483293   20.02703496756606
C        -2.79784020443022   33.94432745496830   22.95722156693297
H        -2.19446541894121   33.15112326118162   23.39353548362248
H        -3.82044542944882   33.58458113792975   22.86143306739837
H        -2.79914710339667   34.78803101724803   23.64265804820586
C         0.05232031398104   30.94736797344800   22.36748377824226
H         0.96815690792422   30.61966134456150   22.85964672648872
H        -0.20874528721776   31.97107013317654   22.65845895544427
C        -1.04254308041196   29.98728915188101   22.46056331974012
C        -2.29516884936307   30.31999344465935   21.90255469675836
H        -2.48144399483220   31.33808805592938   21.56837920131777
C        -3.31685078132773   29.38642392922571   21.85909105030837
H        -4.27072280700948   29.65167046339183   21.42759482910992
C        -3.12742584574038   28.11696506863545   22.37743868507472
H        -3.92887650859703   27.39387986211370   22.34789372795020
C        -1.90739259272176   27.77955514695556   22.94933580203331
H        -1.76531595229356   26.79296106091188   23.36787835732716
C        -0.87741752018154   28.69472575460019   22.98414126198734
H         0.06858631778998   28.42996968454665   23.43643482242069
C         2.25518117326340   28.36604215273634   20.84320119525087
H         2.69815403743899   27.56028565336294   20.26087034899175
H         1.77041915133838   27.94794433366234   21.72111800028067
H         3.03619282848762   29.04992134592259   21.16683139867567
C        -0.05195311058676   27.88921059354933   19.27447736165232
H        -0.74793158259645   28.27430652963034   18.53238562405401
H        -0.61937935252347   27.50712551997782   20.12140934355048
H         0.55008027167693   27.09060360174661   18.84248049607635
C         1.98559799907031   29.59325877992725   18.31141555165014
H         2.44213852826011   28.67154913712005   17.95234437432810
H         2.76010605536133   30.32941191514535   18.51461138396248
H         1.31438396674208   29.98768209214603   17.55313323233359
H         0.61087717068883   31.50022898431250   15.81845933744064
H        -3.64192732121400   32.28392625777202   17.60360849073634
H         2.03409617112921   33.39054339016500   19.13849179836396
H        -2.36466169307095   33.50053831504968   20.90602230292941
N        -1.42390176623712   32.14986412454212   16.85232164057373
N        -0.23194705795539   33.01910209123906   20.01611273172064
Ni       -0.24836945436118   30.95154882502953   20.47673383878789
O        -0.95363827338302   30.86998750812750   18.69432792811181
P         1.01355435614652   29.26950129377405   19.82993863660772

