77
CSD_code = BODKIR | q = 1 | S = 0 | Stoichiometry = C32H41CuN3(1+) | MND = 2
Cu       10.50936478247618   15.04925225601795    1.64189706533423
N        11.13052786556255   12.82201169820195   -0.23398390774554
N        10.66095859826595   14.62030032994836   -1.29742683310271
C        11.22534419107801   12.52748279535134   -1.56505468264807
H        11.48795969743042   11.55072141161344   -1.91449465459633
N        10.24821871702393   15.98352886611690    3.31585921122408
C        10.92902115335118   13.66633675767115   -2.23825425439338
H        10.88938687527399   13.87317603704934   -3.28744403612226
C        10.29655484675379   15.96703808806853   -1.58646398363749
C        10.78234875405667   14.11118465674878   -0.05601028340575
C        11.28181937590236   16.95511670257961   -1.55893401735923
C        13.67099700451622   17.10593586111521   -2.31702091719607
H        13.38990571415715   16.67339227355637   -3.27444029955351
H        14.68670042414658   16.79602794167856   -2.08399809376105
H        13.66113518228115   18.18757633776131   -2.41363941189025
C         9.58304514243049   18.56576717904314   -2.12793866858601
H         9.30234504964485   19.58596880441505   -2.33975787981891
C         8.62235874211697   17.57158475679990   -2.14734887472168
H         7.60005370427749   17.82798939037630   -2.37157897578587
C        10.89838395484780   18.26117601148631   -1.83634016335652
C        12.71835264290790   16.63760263833613   -1.21568882374130
H        12.83585491105019   15.55417446224160   -1.11302106854552
C         8.96073864128172   16.25163287643061   -1.88381273381520
C         7.25093265203883   15.15246999795310   -0.47046830065220
H         7.99605388553814   14.98041158837966    0.30736768949699
H         6.50448554666558   14.36399215343387   -0.41877058807540
H         6.76179506567184   16.10462533615474   -0.27854906399038
C         7.91062844579350   15.16465657801469   -1.85380203809319
H         8.39604831554743   14.19517808881936   -2.00703967900595
C        13.07997800211437   17.27566434409839    0.12851185873178
H        13.00171441119472   18.35816190447363    0.07599502495531
H        14.09910961341615   17.01734346454080    0.40466255034112
H        12.40582943406719   16.91879981898052    0.90907758173066
C         6.85818825932264   15.32600493632911   -2.95036821745243
H         6.20807940903644   16.17435068586045   -2.75642370598046
H         6.23715222623851   14.43440186545915   -2.99475090158895
H         7.33168668699023   15.46382100167371   -3.91958652011294
C        11.36882482373044   11.89479372707973    0.82130846362980
C        12.68541811175329   11.66804363976628    1.23173506804229
C        13.83378379993915   12.42950751489776    0.60990213220193
H        13.53984806199583   12.76417433883189   -0.39049759102618
C        15.09548071513159   11.58089564955777    0.45532790012411
H        15.82004590428813   12.11053828755804   -0.15849859203203
H        14.86458993750515   10.63362999255336   -0.02581711900560
H        15.55900864051279   11.37951006673390    1.41676085564037
C        10.53993474468394   10.35420789918177    2.44230375457630
H         9.72208355170642    9.83877159868273    2.91952634283537
C         8.86210081426939   11.51512519124210    0.96817602581351
H         8.87289775176334   12.16564305831619    0.08796822875590
C         8.14491121140562   10.22105489680507    0.57988664501712
H         8.70538649277480    9.68871548573195   -0.18525664911146
H         7.15713987428887   10.44942741580952    0.18718614550945
H         8.02472008236717    9.56409865791575    1.43617457920186
C         9.18006065710813   16.76553231569152    3.50817042219109
H         8.47932567863218   16.84162998230941    2.68862639742813
C         8.96171451589714   17.45321547548833    4.68734636857867
H         8.08434297031991   18.06935488594325    4.79368061530536
C         9.88295159984461   17.33407755357367    5.71683371511470
H         9.74105697778323   17.85825268588049    6.64898584566736
C        11.83312729784065   10.11665407024357    2.86542606399698
H        12.01589451018075    9.41894003353503    3.66807476393964
C        10.28170451337263   11.24709772638282    1.40994751024567
C        12.89561917581722   10.76952949654809    2.26846608415791
H        13.89745912032984   10.57617043277245    2.61448280249641
C        14.12130652197849   13.67103222677969    1.46194532198622
H        14.41091886778213   13.37703682928291    2.46827074111031
H        13.23576524942199   14.30481600599321    1.52545609299663
H        14.93191976813946   14.24752875652717    1.02335157664217
C         8.10717345502048   12.24756094541701    2.08107608095187
H         7.09709441040422   12.48385679978891    1.75612470563306
H         8.61854799291730   13.17775311935185    2.33545703233168
H         8.04635496627559   11.63355263351858    2.97543643492424
C        10.99022672581379   16.52316102244651    5.51924303154682
H        11.73435371811709   16.39776078309730    6.28898664539317
C        11.13521945066431   15.86809665229164    4.31053617416015
H        11.98844387533462   15.22897794107090    4.13002543173216
H        11.63548553841670   19.04801430863547   -1.82339545177208

