87
CSD_code = BODKAJ | q = 1 | S = 0 | Stoichiometry = C38H45CuN3(1+) | MND = 2
Cu        2.50341143974453    9.13751377522019    6.96920467457607
C         3.09971712170834    7.71908592288987    5.76301100651479
C         3.06030532336913    5.73371152401907    4.73988558929207
H         2.68121318056791    4.76515570489320    4.48858059920946
C        -0.06866285764022    7.54260723209451    4.54119063197624
H         0.92094036234437    7.57152699056424    4.07488990538678
C         2.14618901611661   11.25022973033350    8.87099498785898
C         4.16941190072289    6.39258921894166    4.32344143882883
H         4.94442986603754    6.10233831984269    3.64487891492338
C         5.76604278430005   12.51475417826382    7.04392728785455
H         6.68766666294614   12.82635703802265    6.57823924424294
C         5.17915556970116    8.59801287964464    4.78832721751462
N         4.17343692492710    7.60391619760625    4.95960441018767
N         2.42145041273939    6.56315883166550    5.61839780571229
N         1.59389657261685   10.12740664337345    8.38116216495231
C         7.13394698713618   10.49894687846265    4.43430836741396
H         7.90412401930537   11.24127569164905    4.29085142016944
C         5.14499899755528    9.39605602843535    3.64026826352647
C         4.01862854056092    9.25974892268311    2.64061498490951
H         3.66066906787408    8.22474475904011    2.64892173559342
C         4.44021401546530    9.58445928242283    1.20835544453486
H         3.65192646970133    9.28850147908280    0.52044644425250
H         5.34714744473625    9.04707008875969    0.94187570713891
H         4.61174824749367   10.64914616333273    1.07610592156536
C         6.14062754180221   10.34976999883079    3.48370484277695
H         6.14524946035337   10.98196809136058    2.61123148355171
C         2.86120507891086   10.16580525954047    3.07663322851511
H         3.17705327368358   11.20652983039133    3.07686707348080
H         2.52597262970380    9.90493554631439    4.08013724227915
H         2.02486075132264   10.06087270726348    2.39002486162115
C         7.14530697817743    9.70407999449757    5.56291768138176
H         7.92405175694766    9.83383056477299    6.29704950379666
C         6.20217864193244    7.86642750096080    6.99630037837778
H         5.42762544314622    7.09695269843644    6.91933699273343
C         0.00382569614056    6.73280285359618    5.81412642017590
C         6.17120178137201    8.73352801268409    5.75999835368895
C         5.89492438398990    8.71505749134933    8.23240476341158
H         6.62987231147087    9.50656097963804    8.35122700879493
H         5.90546161140701    8.09523853412610    9.12545457721606
H         4.91053737160898    9.17541318251081    8.13836154292045
C         1.21798819549934    6.26365586278220    6.31927056060425
C         7.54930103003073    7.15603641270383    7.14233886133975
H         7.78747459198493    6.59899825995581    6.23910509458918
H         7.51201877362013    6.45977952925864    7.97654387303318
H         8.35070754164584    7.86453761406533    7.32956853659859
C        -0.47507607090858    8.98222378341980    4.86852147823571
H        -0.49418910403077    9.58203095000477    3.96225067371016
H         0.23777879247981    9.42670662559982    5.56536167633056
H        -1.46279249962388    9.01197031119048    5.32093592711063
C         1.56116602863656   11.94004435012966    9.92978637765365
H         2.02354804088491   12.84408571340255   10.29236333286271
C         0.38565154583984   11.46716168750742   10.48202889411249
H        -0.08562839476412   11.99054886723369   11.29932036933813
C        -0.17824959216244   10.30861028237678    9.96291811242004
H        -1.09316331681350    9.90500849185491   10.36379232589651
C        -1.03780280811761    6.91632050688521    3.53716697813750
H        -2.05943795654599    6.94343903131063    3.90458628909579
H        -0.77008877636191    5.88017854627629    3.34359575169199
H        -1.00159571848230    7.46277563543869    2.59809208438401
C         5.65876384347296   12.49427339057232    8.42509274695233
H         6.49713267241136   12.78783306528239    9.03789011787316
C         3.50308540681416   11.74673880140268    6.85366524525491
H         2.64235522815349   11.51868108604947    6.23889595582277
C         4.47693502977205   12.10165995561825    9.02612229352610
H         4.40003074564538   12.06909555629176   10.10258307904604
C         4.68466473929054   12.14974387394035    6.25972250482725
H         4.76110321282465   12.18202955391441    5.18439016914110
C         3.39184928280457   11.71341373358208    8.24432630271643
C        -1.15112007858530    6.45536666508700    6.53484515410078
H        -2.10389009965829    6.80576201389227    6.17136173796621
C         0.45850589137416    9.67164457294357    8.91671583688428
H         0.05605151852620    8.76271646678158    8.49016536497165
C        -1.09515100894095    5.73598935077453    7.71304826498193
H        -2.00230614583960    5.52897678692826    8.25979547278487
C         0.11767875844704    5.28147985401922    8.19636824953407
H         0.14565567961295    4.72653564993986    9.11972181237580
C         2.58799999770344    3.65369912331890    8.59882619971520
H         3.59612227236936    3.32085981368291    8.83261701956811
H         2.16679999616253    2.97957090121279    7.85699496198036
H         1.99496035615466    3.58356064608299    9.50593804383668
C         2.62800841816550    5.08539188372849    8.06473636567803
H         3.37928053798482    5.11759154876477    7.26924690436050
C         3.05846382611216    6.06334131724114    9.16319534526184
H         3.12429519636630    7.07759848065162    8.76727529797212
H         4.03027435886661    5.77875338010709    9.55820720896241
H         2.33892016838272    6.05818019026700    9.97835845199913
C         1.29675711080437    5.53261314900116    7.50788657191470

