57
CSD_code = BODMUC | q = 0 | S = 0 | Stoichiometry = C22H24N2O8Pd | MND = 4
H        -0.22992116048982    2.40552663983727    0.04241915328235
H        -1.41908180147688    0.55102860516788   -1.11119944666015
H        -0.15957369744624   -0.84862287787162   -2.74887776388787
H         2.26506763438361   -0.39562484320963   -3.07862674635969
H         3.92048497766977    2.42464215440025   -2.38836026008342
H         4.30354415920911    0.69815287207504   -2.12721316968335
H         2.58595165553654    0.21777210192426    2.88707906587495
H         3.75917012746037    1.06945877391415    3.94034879707979
H         4.26264877125019   -0.35977467414565    2.98692890926376
H         7.97188091880710    3.15820933110474   -0.04833990149249
H         7.86053500161370    3.07114585669475    1.73702345006726
H         7.06556277496244    4.40212696362977    0.83528690354770
H         4.62066244261218    3.54082937375818    2.50069760904392
H         5.77782624232306    5.38362150996264    3.70457218561542
H         5.57178870965658    7.70946865761677    2.82385622200206
H         4.12784125316727    8.10128074992429    0.83549314230256
H         3.15086722667937    5.85498972751872   -1.44714688125667
H         2.29798104499099    7.17522988636204   -0.59528646056688
H         0.23516000727306    4.35737892459815    3.42205360468125
H        -1.08797316778525    3.35038731253030    2.75383632272977
H        -1.19860714185492    5.13685186219436    2.72100035904391
H        -0.75157170106615    3.25906700242507   -2.88288996110649
H        -1.19915707876289    4.94877981895569   -3.18658207760981
H        -2.22982027484611    3.93819202906471   -2.12880890892633
Pd        2.71389610867922    3.42563841943322    0.03671068677840
O         3.29713979140512   -0.13759899844360    0.49375053750475
O         3.99584873664521    1.42194345731290    1.96971490184116
O         5.56691546119694    3.65981637372228   -1.07589624877230
O         6.18084743294734    2.52768026906777    0.76939998934351
O         1.16259421080248    6.13634676783176    1.90458058427661
O         0.07403575114657    4.23356286616974    1.36333654055365
O         1.37792423103328    4.53963957909264   -2.50355036197624
O        -0.51042852072926    4.55035691870638   -1.27897375997319
N         1.56994946855404    2.02156618881053   -0.87637181605825
N         3.80395882071790    4.78284109617071    1.07891599070287
C         0.28454188602970    1.76205441275184   -0.66122749458126
C        -0.37550048125284    0.73365236562947   -1.31194409020538
C         0.32865805616991   -0.04599871682827   -2.21693347978889
C         1.67451450075988    0.20861268607245   -2.40898824657025
C         2.27620313883634    1.24445668182680   -1.70682900303135
C         3.73567828638986    1.55176776669470   -1.74463201640221
C         4.16135723706962    1.92313554134244   -0.31820831050633
C         3.80418138543390    0.94886815004481    0.69924699176215
C         5.33577325341474    2.78417336676529   -0.25579368469350
C         3.62699412096696    0.52859296901291    3.00591237615316
C         7.33866196036010    3.34387320506238    0.82256229874361
C         4.54100948404825    4.56734194600377    2.16340806671066
C         5.19070080105454    5.59528061311925    2.82530154705931
C         5.06986585370503    6.88722599294757    2.33645486148025
C         4.27419581165216    7.10743527156447    1.22675659213715
C         3.63456398532398    6.03128919237474    0.62608128607620
C         2.66710742091290    6.14910214062926   -0.50356171546059
C         1.52815449767015    5.15768204531638   -0.23144123324975
C         0.91300244817276    5.27763608089912    1.07999726809481
C         0.82349971955944    4.72031302159338   -1.43016264461874
C        -0.52887520949478    4.27704871823793    2.64465703345536
C        -1.21043657304846    4.14804585261517   -2.44353759368354

