81
CSD_code = BODMOX | q = 0 | S = 0 | Stoichiometry = C34H40O4S2Zr | MND = 13
Zr        6.58926056452229   16.78786468212511    4.54384440334995
S        11.29854710616007   23.44066320086749    6.55401290055714
S         0.94194291260345   22.99050921550488    2.96416026738245
O         6.02279776420008   18.86778169747904    4.57095334776507
O         4.65881774946906   17.39741163824342    3.75272851036102
O         8.19537460504633   17.62860891757342    5.33150868776296
O         9.95675921557774   16.83396076571797    6.41993908797554
C         6.29226021587046   16.47626176042488    6.97716475208578
C         4.97234697005721   16.77795540757609    6.54665479704529
C         4.50946266866253   15.69730378234650    5.75540378491449
C         5.55563686284121   14.74287485589169    5.64826257209804
C         6.66783524257734   15.22010769340302    6.41270091679228
C         7.04079925048672   17.25985523405368    8.02120934410296
C         4.17773934319210   17.97059071660892    7.00264307615056
C         3.10240337673281   15.47347006407282    5.27774085168434
C         5.31583945981496   13.32400689700105    5.20266547061376
C         7.89968254498236   14.44294679905408    6.79695444553836
C         6.38333799640835   15.68761630659136    2.26085172210903
C         6.68697874113014   17.05401264888693    2.01743078517846
C         7.98779332029956   17.32103322270836    2.52335835407484
C         8.50563140841525   16.11081027466419    3.05419454622542
C         7.50576123139419   15.10196170669994    2.91699548614703
C         5.16037680049028   14.98210473551922    1.73755063284197
C         5.87923092137645   18.01334214873981    1.18684224193714
C         8.69588288010582   18.64263157645889    2.39840349150710
C         9.92353778625083   15.83242756840519    3.46700575683031
H        10.38005783255621   15.12864583785158    2.76637764444351
H         9.98117289332587   15.39979007631542    4.46611407598687
H        10.51789111642302   16.74366954151057    3.46289622870661
C         7.82933434286225   13.63441486656519    3.02042089076199
C         4.90226021541127   18.59909713868730    4.04224548270699
C         3.91858088535976   19.66846776837768    3.77785892606107
C         2.69765643439848   19.36534744184531    3.17846206377575
C         1.77874181438799   20.36126947057873    2.92485766461792
C         2.07430475115966   21.67688076004630    3.27013715842679
C         3.29116238181160   21.98624727855774    3.87416527551482
C         4.20619245589439   20.98801866556661    4.12587885577201
C         9.30963042415046   17.76716750154686    5.95684212212347
C         9.79662767974894   19.18235655293638    6.09973231457679
C         8.97564454394661   20.24271654911528    5.72752362070701
C         9.41587697152593   21.54436932541641    5.85990746894026
C        10.68673497374016   21.79264058376215    6.36599578545234
C        11.51218085059502   20.73785037606560    6.74097314667486
C        11.06506714181116   19.43930625046542    6.60941767196766
H        10.20787492549743   24.05078206589707    6.09025057824636
H        -0.00002684768328   22.24152319513586    2.39043171528818
H         8.05490982061291   16.88496705841374    8.13769927213904
H         6.53189513554672   17.16970283845817    8.98474436952468
H         7.08961077194924   18.32174040116237    7.76618965387615
H         3.35009905438412   18.18004045809170    6.32387978248913
H         4.80929988028684   18.85937938690364    7.06074224902743
H         3.75755975156312   17.79191977627362    7.99624549540042
H         2.55837747270785   16.41231604055712    5.19695099335231
H         3.08882269588761   14.98317733528571    4.30528419170946
H         2.56767345532659   14.83253135029935    5.98397661870608
H         6.23405849286076   12.74347902559475    5.19604405705144
H         4.62680966746718   12.84126678851829    5.90099907496125
H         4.85800878217301   13.27906073069281    4.21495648838019
H         8.02738632088975   13.56182114285354    6.17045583614143
H         7.81622413856523   14.10274306081077    7.83210574621259
H         8.79555044828695   15.06233980111492    6.72190166224830
H         4.24761123884092   15.42570518902991    2.14070111211554
H         5.17843480101688   13.92427593747735    1.99137311127561
H         5.11951912464622   15.06064484645609    0.64914096675188
H         6.29941090490102   18.07837876834255    0.17937790058212
H         5.88869017920402   19.01996114855413    1.61209058547788
H         4.84494370298935   17.68500202098334    1.10337427849273
H         9.56059772461881   18.68776318572879    3.05877778808075
H         8.02593567708950   19.46527795110585    2.65944742523909
H         9.04001505190291   18.79948735714921    1.37263033941067
H         8.49634540998539   13.35631050865770    2.19927531036177
H         6.94138439631734   13.01313473127390    2.94384221317245
H         8.34902010861674   13.40346742297342    3.94938268800717
H         2.48616082412240   18.33959649561892    2.91664514673906
H         0.83352647340066   20.12135504704231    2.45931913552707
H         3.50456086205855   23.01058923211335    4.13901147936441
H         5.15380530469468   21.20896894650183    4.59334759786281
H         7.98904049320960   20.02610035267882    5.33746881232564
H         8.77684474399192   22.36815705574149    5.57227442989230
H        12.49600135498305   20.94746368251156    7.13307522754335
H        11.68736300931037   18.60570016217933    6.89730003677603

