29
CSD_code = BODNIR | q = 0 | S = 0 | Stoichiometry = C16H9MnO3 | MND = 9
Mn        4.37931237388948    5.85662465089225   12.73133396209574
C         2.30233161565355    5.17204473103649   13.92656974743007
C         3.51409806071011    4.77530552032795   14.48638066581102
C         4.46483196209908    4.00474517406492   13.74865847350753
C         4.15788244202871    3.61652822562084   12.42097586075484
C         2.83232765405846    3.05921438465508    9.45214241826728
C         1.96762504005127    2.82631918856473    8.40174333365151
C         0.62799001638147    3.20880434373224    8.47887125893124
C         0.12100334900674    3.82962003510517    9.60191480222625
C         0.73429166944679    4.68954990274493   11.94473286570802
C         1.90307634430069    4.67337738013775   12.65304133606186
C         2.96384805863049    4.03555313526119   11.83668306809759
C         2.33972153285098    3.68373479541872   10.59076329093318
C         0.97374176295815    4.07749244297541   10.67395927968208
C         5.29566497529002    6.94969033471512   13.81310602808611
O         5.86712415289178    7.63321632035021   14.53776922085319
C         3.41333202748849    7.13965177654934   11.91378192081091
O         2.76160942681859    7.91864958435429   11.38641782186412
C         5.69904594851434    5.83924949323895   11.52049929772033
O         6.52667179867137    5.78378220285824   10.72712135906078
H         1.58060336333574    5.70456951101027   14.53701327763986
H         3.71442146356352    4.99221240196653   15.53288269883988
H         5.28557504017430    3.52623505191325   14.27533293582886
H         4.82474200760675    2.94573628787555   11.88498024977884
H         3.87266966290146    2.77282701197864    9.38479313903657
H         2.33039685614741    2.34662850274968    7.50474159594055
H        -0.02183858269743    3.01432380888904    7.63761510050930
H        -0.91752963968417    4.12285607374564    9.65164105794958
H        -0.19967038308832    5.11615772726767   12.26033393292276

