67
CSD_code = BODNOY | q = 0 | S = 0 | Stoichiometry = C34H24N8Ru | MND = 6
Ru       -4.43808893433028   13.90794310065493    5.90667319555262
N        -6.06150050609347   13.08061526436981    6.61275424226195
N        -4.35803135489631   14.58327626544656    7.75788040742910
N        -5.22482534535938   15.57427465907333    5.19823334207488
N        -2.80116749298693   14.73489346413985    5.09639104339247
N        -4.51879943615891   13.03819796271163    4.04293511735695
N        -3.21899268965768   11.82091627554385    2.63723234700672
N        -3.44578035083371   12.17217731958867    6.26294472770790
N        -2.18592228950170   10.54598167233182    5.30697371051251
C        -6.85717345068961   12.24547539380423    5.93641786799586
H        -6.59183596010856   12.07569443601967    4.89995379233843
C        -7.95052015411558   11.62712055047964    6.50370571982957
H        -8.55635082440281   10.95871144654425    5.91383402253463
C        -8.25188999554011   11.87442066070002    7.84125395748800
H        -9.09988249909213   11.40390948330762    8.31305268831383
C        -7.43443893154741   12.72833008466086    8.55263167573342
H        -7.63256831671190   12.92975119545101    9.59295384593407
C        -6.33945401085876   13.32030280103400    7.92156666396362
C        -5.38191845016900   14.20184149060167    8.56695034224975
C        -5.45403701600675   14.62330232598654    9.89560698050637
H        -6.27827208536209   14.31093947615012   10.51591400562642
C        -4.46233095332281   15.43187938468625   10.41174399530879
H        -4.49762128766153   15.76118738722577   11.43800088519143
C        -3.41101146719757   15.80598007495688    9.57804146244879
H        -2.61004621257089   16.42918757587444    9.94147700142973
C        -3.40335918703492   15.36307272332005    8.27298948368375
H        -2.59586821476291   15.63508028082086    7.60335949798577
C        -6.44063209546954   16.07503661540172    5.44306482720057
H        -7.02285372626106   15.57186668768790    6.20809705776997
C        -6.96112148114683   17.15931791426598    4.77078975270901
H        -7.95236419887756   17.51381132784269    5.00403297425677
C        -6.19457488905208   17.77100091570305    3.78137790985977
H        -6.58038727204831   18.60950826163128    3.22402747818011
C        -4.92848068719834   17.28041711525752    3.53422003750164
H        -4.30495873962274   17.73764698111046    2.78394136546595
C        -4.45785579424749   16.18458279717321    4.25661219558154
C        -3.11323785823343   15.63750514435410    4.13366348164827
C        -2.19299559821325   15.99738588304081    3.15071712581040
H        -2.47903420783977   16.67711576070297    2.36498639292824
C        -0.93050275812729   15.43677496241834    3.16597674555027
H        -0.21612544418234   15.67507811890315    2.39402074199204
C        -0.60126175688220   14.56149243096548    4.19386935008994
H         0.37523169051217   14.11006039092161    4.25223728176288
C        -1.56257459021714   14.24303704988471    5.13345790122097
H        -1.33825858888999   13.55576848470911    5.93986329365455
C        -3.53380321731144   12.09711558203237    3.88717957874398
C        -4.86156894796656   13.39106229881696    2.77220849772213
C        -5.83242739540695   14.24787383035479    2.26258520957462
H        -6.51149534807945   14.78401775863837    2.91372186962012
C        -5.92088426437633   14.37456735064439    0.89255381964717
H        -6.66227001262122   15.03919173662885    0.46979668459749
C        -5.08537076424132   13.65415031132113    0.03442391907950
H        -5.19489014238923   13.78854633543251   -1.03272255539511
C        -4.14850158235209   12.76650391981831    0.51725049912721
H        -3.52138085036512   12.18807929964508   -0.14301666624732
C        -4.03348733439572   12.62258469711111    1.89581889660303
C        -3.00693047275092   11.55708459371477    5.11512921033461
C        -2.84469667891586   11.48701384445895    7.27353961439159
C        -2.88734182710114   11.61981917286398    8.65770858022030
H        -3.48644625287293   12.38562480881332    9.13391342580942
C        -2.14126515609423   10.73725787340214    9.41001935271226
H        -2.15588589069277   10.81728369028366   10.48854509983797
C        -1.36680683163811    9.73824026466055    8.81383712009561
H        -0.80058169984056    9.07055793828942    9.44807409452864
C        -1.31389251396079    9.58677497361542    7.44504835607452
H        -0.72019786290881    8.81445077651892    6.98158974398064
C        -2.05569954075355   10.46422934547463    6.66146771390071

