81
CSD_code = BODPEQ | q = 0 | S = 0 | Stoichiometry = C36H36N2O6Zn | MND = 4
Zn        8.62575709344546   10.69562889807153   10.46855380660704
O         9.08387850140675    9.30886916341573   11.57868456046664
O         9.48367152865739   11.10900936354420    8.90116353271690
O         9.44503811627059   12.94045591524094   13.77594109153186
O         5.44100552344939   10.12286223983699    7.98255685494721
O        11.75061003369749    9.08782126867992   20.97889339247867
O         6.38304136023145   11.33108978832228   -0.36490245784620
N         8.90275038890915   12.10142562568895   11.78719995058321
N         6.88579963565255   10.35327849455092    9.66001158820987
C         8.99307938965265   11.11460318806890    7.70869729901362
C         9.84219381389612   11.45159936097554    6.62442094230250
H        10.87253762856338   11.66995567710937    6.86210299734190
C         9.39663857821581   11.49051272645563    5.33321165437016
H        10.08666197599827   11.73220356731362    4.53748626976279
C         8.06055113154078   11.19045424268931    5.01306116983386
C         7.21034237442303   10.86090604810467    6.04617847274055
H         6.17315526357503   10.64195954135683    5.84295720118861
C         7.63802136486300   10.81805718623733    7.38409208843169
C         7.59841559264966   11.21459805516088    3.61925284537080
C         8.04671622554769   12.19013867229405    2.72766676705752
H         8.72313442159379   12.95801752663082    3.07264572841075
C         7.62168833738662   12.20324983782564    1.41811003375544
H         7.96333716096976   12.95886488866372    0.72806213634310
C         6.73415339163502   11.23324404886469    0.95014126340874
C         6.27832864397174   10.25799267941998    1.82924962531233
H         5.59363265037256    9.49056197407862    1.50282416589283
C         6.70820027863163   10.25753198398663    3.14440106127721
H         6.35830297360742    9.48137818331832    3.80898202667767
C         5.50293181934332   10.37264969530495   -0.89633073855438
H         5.92062847475454    9.36234809680068   -0.83135847103268
H         5.37233490341773   10.63999917975722   -1.94393238988997
H         4.52992834391210   10.39581848129514   -0.39424188498138
C         5.68470621746911    9.83711920359898   10.30663639426221
C         5.25236183550037   10.77225510759349   11.43199718336432
H         6.04235724693242   10.82566268445783   12.17758897789140
H         4.34624209349689   10.39780620626695   11.90225815449645
H         5.06471722178156   11.77169205990209   11.04508720063260
C         5.96537196828414    8.43618033154633   10.84989720147432
H         6.23418280983403    7.76566190790443   10.03662918696424
H         5.08719201841462    8.04743291466489   11.36022161809815
H         6.79944828351940    8.47479293713409   11.54490129085520
C         4.67441798696110    9.80564030727726    9.13415060994288
H         4.22165125961330    8.82178289280714    8.99172734191176
H         3.88215519356281   10.55424775063307    9.24161160774710
C         6.68652351377455   10.43808963631895    8.38342422460726
C         9.42178432342578    9.36808450226543   12.82134754204591
C         9.50850658241107   10.56698492846109   13.58633930007748
C         9.87668689672417   10.51115278898511   14.94144730077015
H         9.95451914038815   11.44359926421201   15.47951431834628
C        10.16544721420058    9.32243300593147   15.57606974941383
C        10.07755416915841    8.13828591240468   14.82228562405732
H        10.27870980123463    7.19198471288845   15.30367305059089
C         9.71792607182597    8.16139510837962   13.50437547537824
H         9.64817884531582    7.24827112805427   12.93240636822988
C        10.55924329815871    9.28413274019734   16.99034929879324
C         9.96733886515895   10.12543207380421   17.92603963984463
H         9.19189770846478   10.80847110246761   17.61157004484368
C        10.33084501870686   10.09349935118520   19.26091941421741
H         9.83944152724690   10.75997403172638   19.95284794845557
C        11.31137151772716    9.20823538445569   19.69260146265121
C        11.91449361097885    8.36159608392031   18.76139977974752
H        12.67844245699250    7.68301537489860   19.10727781418556
C        11.54222771313089    8.39931601134530   17.43660037309790
H        12.03524718263206    7.74892660665068   16.72966027071633
C        11.18919765948474    9.92249416371519   21.96025741790761
H        11.36807520018335   10.98022480795690   21.74016900058761
H        11.68871354773941    9.66035957090994   22.89184243898424
H        10.11283499612222    9.75126240217114   22.06764972723358
C         8.87555795652692   13.54354623757983   11.57221741869192
C         7.51688138353583   13.96692913517549   11.02205282672088
H         7.34746641758280   13.47427836854093   10.06740867440050
H         7.49202591970334   15.04388019942357   10.87391061346414
H         6.72249890750499   13.68480238746372   11.70989214100278
C         9.99178316660078   13.92788093657113   10.60115411312550
H        10.96032906794412   13.66031126891039   11.01796756058285
H         9.96875566416165   14.99721960282615   10.40456782450071
H         9.86394020979457   13.38579057053914    9.66823226685735
C         9.14045100689585   14.08759529797707   12.99713825129033
H         9.99055986449696   14.77241274919053   13.03781133618038
H         8.26193655021969   14.57835202620545   13.42965168187225
C         9.27123596824785   11.85242062344846   13.00323835515316

