73
CSD_code = BODPIU | q = 0 | S = 0 | Stoichiometry = C34H28F4N2O4Zn | MND = 4
Zn        5.05924773563785    4.58848252644998   11.03851077475239
F        -1.58198234533975    7.90900531534658   13.22255630897722
F        -5.64566247685144    5.59496337597830   13.44409957492381
O         4.01845687513806    5.45895024729851   12.27346144590079
O         1.45431948955089    3.18905673615352    9.74272169454760
N         3.58805871572353    3.67448782179547   10.14616020373068
C         1.86284649499200    4.67159766925751   11.55900820483908
C         2.73586390747534    5.45016292436410   12.37414772805852
C         2.12322295395300    6.24784633728655   13.37461293407484
H         2.77939837177978    6.83609268811050   13.99771388190138
C         0.76950830894220    6.28922075726379   13.54995636945139
H         0.35279947673165    6.90906391882096   14.32939749633132
C        -0.08760508656233    5.52094298694277   12.74148725607512
C         0.47602342528859    4.72573284819001   11.76648823364365
H        -0.15481436660247    4.14267626069115   11.11285454554153
C        -1.54454428601975    5.55103566488312   12.92735642047330
C        -2.24173976517357    6.73441941394197   13.17324502201119
C        -3.61240965430120    6.77184199505554   13.34710671490339
H        -4.11792401415630    7.70616328167820   13.52898021635140
C        -4.30928746862927    5.58072769979159   13.27306461208710
C        -3.66878361994747    4.37971361047991   13.02723325341764
H        -4.24162165875498    3.46781848828442   12.97592911372221
C        -2.29800054222824    4.37869288079559   12.85663831150709
H        -1.78629566591039    3.44578506485067   12.67906469484100
C         2.35286665339229    3.85336223481096   10.48993576013908
C         2.16058560747725    2.44227913267009    8.76290400203721
H         1.76568397647559    2.69935200608314    7.77750736124472
H         1.99323058373788    1.37654368675371    8.95108840199884
C         3.64238949751711    2.85287732438321    8.94131130845366
C         4.56316160391021    1.65657796636200    9.16201772795228
H         5.56862015347163    2.01252924461154    9.37460144773734
H         4.58882744227239    1.03575100561681    8.26971210631847
H         4.21642767104147    1.05727888090984   10.00127799194212
C         4.13793872920657    3.70490214016273    7.77302144534402
H         3.45354370630653    4.53121994188874    7.59406886831364
H         4.21369051088882    3.10045216427210    6.87219769669086
H         5.11287426579972    4.12065927329366    8.01200681565168
F        11.70047430613043    7.90900244635555    8.85446261355010
F        15.76415510285477    5.59496189520870    8.63293835852697
O         6.10003454926209    5.45894812569607    9.80356172180167
O         8.66416981733945    3.18906074987249   12.33430792603178
N         6.53043088171571    3.67448834924090   11.93086378428400
C         8.25564495657506    4.67160053361318   10.51801985201961
C         7.38262845610754    5.45016984254288    9.70288337793457
C         7.99526815730387    6.24783614425385    8.70240418218574
H         7.33909308989605    6.83608629038741    8.07930636270176
C         9.34898235096383    6.28920565686077    8.52705691956504
H         9.76569293224948    6.90906590384372    7.74762986037932
C        10.20609670768799    5.52094012780223    9.33553652777969
C         9.64246829421017    4.72573583229172   10.31054049752071
H        10.27330562009974    4.14267593777892   10.96417168790868
C        11.66303592631763    5.55103425772120    9.14966963426914
C        12.36023076538703    6.73441600408497    8.90377242221244
C        13.73090157110516    6.77183897597117    8.72991929578660
H        14.23641622451872    7.70616016632987    8.54804595088371
C        14.42777964220728    5.58072613008672    8.80396869401867
C        13.78727563643191    4.37971312831371    9.04980155889272
H        14.36011430324562    3.46781727704853    9.10110943683692
C        12.41649255492384    4.37869290575998    9.22039731576584
H        11.90478593774962    3.44578322963163    9.39796695357090
C         7.76562333238659    3.85336029956294   11.58708810579568
C         7.95790274317820    2.44228610700029   13.31412721951816
H         8.35280332503086    2.69936139712383   14.29952388011029
H         8.12525823037473    1.37655040020134   13.12594494175555
C         6.47609903929365    2.85288318454550   13.13571637748506
C         5.55532666999244    1.65658387940983   12.91501235708556
H         4.54986730151247    2.01253412277149   12.70243032933328
H         5.52966385795960    1.03575824586231   13.80731890000201
H         5.90205965701135    1.05728406863995   12.07575235203564
C         5.98054922407984    3.70491111087922   14.30400390974485
H         6.66494331784369    4.53123015622107   14.48295429221697
H         5.90479643714209    3.10046470583073   15.20482996813467
H         5.00561387367540    4.12066689573221   14.06501648647006

