109
CSD_code = BODPER | q = 0 | S = 0 | Stoichiometry = C46H57N3O2Zn | MND = 5
C        -2.39331517419803    6.28704574351112   13.55199556467079
C        -2.75910952091005    4.90352014948590   13.67530086773091
C        -4.00288751006244    4.58074225481930   14.15373783022888
H        -4.27078841668265    3.54105450853074   14.23826069720820
C        -4.96407103376389    5.52773244668518   14.55329763065332
C        -4.62107577678177    6.84788625127014   14.44530247872842
H        -5.30751817186553    7.62901747586334   14.73461399675887
C        -3.36756852061040    7.25339852825739   13.94612199241342
C        -3.10815287849364    8.64873230774208   13.90803989656349
H        -3.87138475725904    9.28776949522195   14.37230487708533
C        -1.75222958857802    3.83051872412936   13.27440730416240
C        -0.50740716442049    3.96152665886943   14.16135434045912
H        -0.77470659121901    3.81454864009737   15.20617011870545
H        -0.06979831978252    4.94774342672759   14.04781209695165
H         0.23495896879070    3.21642460053579   13.88256474022554
C        -1.36440983736113    4.02431266235816   11.80173300860966
H        -0.65351158235517    3.25802768738364   11.49839773996614
H        -0.90737889319933    4.99935330286686   11.66681868042672
H        -2.25168799835554    3.94840321638703   11.17310922318326
C        -2.29654466951896    2.40608309264397   13.43112674779239
H        -3.17212521306106    2.24456458981891   12.80534630136852
H        -2.55085791372701    2.19118681618166   14.46650369395494
H        -1.52999452929681    1.69707599040516   13.12356187278499
C        -6.30399056905435    5.04119699392842   15.08388907842388
C        -7.23438579959716    6.19559406259666   15.46630161583656
H        -6.79539070259237    6.80526334412367   16.25260269883389
H        -8.17725515804661    5.79684270298643   15.83610447913531
H        -7.44883480063428    6.82486414406648   14.60546726109101
C        -7.00405453943472    4.20287392694529   14.00511034646684
H        -7.15259287383422    4.79790982947383   13.10628145574674
H        -7.97556352947052    3.86579081183718   14.36149306161101
H        -6.41753586796366    3.32755822298192   13.74049065360901
C        -6.06817670928517    4.18420198455736   16.33551005194165
H        -5.45953890329052    3.31302519794634   16.10981617282445
H        -7.01745201122518    3.84063281748731   16.74219165002844
H        -5.55595467894958    4.76819423346532   17.09728419719707
C        -1.86902254735668   10.62022989881065   13.49801138090375
H        -2.51031317592781   11.05041474471832   14.28597435985099
C        -0.38917145357148   10.85608377381135   13.90049341594947
H        -0.11503007008127   11.89025316129626   13.63966743366918
C        -2.23993739204929   11.26701089747420   12.18151494268603
C        -3.49319050590145   11.85419973227268   12.05164271699666
H        -4.16869304065723   11.86570775699772   12.89584959496121
C        -3.88629691345108   12.42720436015837   10.85577444746159
H        -4.86305422791619   12.88126112176725   10.77289748329914
C        -3.02846372227765   12.41921493399810    9.76968704185400
H        -3.33219823534677   12.86757980190320    8.83504620785941
C        -1.77984148191960   11.83465780863729    9.89029102130363
H        -1.10433815330373   11.82538697994467    9.04719896584231
C        -1.38613679902277   11.26108516543251   11.08671762491086
H        -0.41001099837826   10.81023220218795   11.16315589094453
C        -0.28180934030172   10.68684944399523   15.40133015254519
C        -0.35939035527522   11.80160751474961   16.22696252455725
H        -0.45847706553093   12.78540159204104   15.78839825210538
C        -0.31182791974293   11.66245931226004   17.60255141966818
H        -0.37034515616067   12.53754632433196   18.23339334635141
C        -0.18902408376183   10.40468552064516   18.16780586983397
H        -0.15241541257102   10.29472542427322   19.24163681725374
C        -0.11211959606055    9.28977879279753   17.35048458041711
H        -0.01719610680581    8.30563539755597   17.78488556556212
C        -0.15770276455295    9.42782369032126   15.97453207518470
H        -0.09457215256061    8.55259876221809   15.34288116371971
C         1.70737189353330   10.16421962086936   13.08953673449267
H         2.09075065313945   11.10708225493157   13.50149081192433
C         2.66917877939467    9.33030385943937   12.46749235206741
C         4.00129943670922    9.79327273155621   12.44583595936950
H         4.19147135837156   10.75519434350728   12.89712305720934
C         5.01063594471212    9.06164781206815   11.88418458553105
C         4.66763696236596    7.81308628412509   11.33028330367057
H         5.46361718481582    7.23310845279256   10.89457101479737
C         3.39673131411524    7.30076442038088   11.31705583920092
C         2.32640669439365    8.06790305809034   11.89326570613023
C         6.46126536711474    9.51617750601536   11.83486687331152
C         7.33324947985962    8.50441164841796   12.59145238781280
H         6.99920830129270    8.42093089004329   13.62348398797125
H         8.37290606503840    8.82623869120648   12.58868893110226
H         7.28159121975450    7.51886645445119   12.13727666216500
C         6.66398627501043   10.89175203120906   12.47592182283672
H         6.08125471778160   11.65167549853221   11.96045008329927
H         7.71388796634478   11.17193243813939   12.41332384700757
H         6.38145497659783   10.87757799958651   13.52594013490122
C         6.91591729778217    9.60117492382043   10.37101587088873
H         6.85187344170860    8.63463336085224    9.87911579562868
H         7.94778777273567    9.94276985552079   10.31633060588360
H         6.28956523597650   10.30321126194671    9.82446970735411
C         3.09105008183285    5.93367939168671   10.71519145097942
C         4.33191325291345    5.23121974766544   10.15306961545400
H         4.78645844439536    5.80837033209231    9.35034792186161
H         4.03945111190153    4.26522967657616    9.74497365706143
H         5.07095243334000    5.05361624083847   10.93106652648382
C         2.48941279684535    5.03345167492722   11.80213551349509
H         3.19377706804674    4.91504091628780   12.62320069339039
H         2.26365462092478    4.05001391066229   11.39383887645646
H         1.57485274730738    5.47046351669257   12.18793027256280
C         2.08468790908734    6.10444768642801    9.56870837805949
H         1.18114603990936    6.57070477814449    9.94695409038932
H         1.83534724049921    5.13437212480978    9.14127378312152
H         2.50779283797404    6.73374011165266    8.78688714826663
C        -1.46302352859119    7.39344714465242    9.82276973050380
C        -1.61796034598535    6.43554698514454    8.77657220525742
H        -2.56850432552285    6.59047326841849    8.26872996443690
H        -1.59192034466727    5.43739904776207    9.21279918383810
H        -0.79915485575707    6.53904874249588    8.06533758559292
N        -2.06616917893215    9.19982723995016   13.40249734508347
N         0.44925124456071    9.91408513281954   13.20235382357434
N        -1.33926894524153    8.16448557084080   10.65879089422136
O        -1.22666574005598    6.61581828752337   13.12525827219470
O         1.12198723394696    7.62481302102668   11.87576409438814
Zn       -0.50904623063690    8.26561909657644   12.58586417969475

