94
CSD_code = BODPES | q = 1 | S = 0 | Stoichiometry = C39H50CuN4(1+) | MND = 3
Cu       -1.13571156842545    9.38874601117364   21.40028544457907
N        -1.43675652296588    6.43908317953679   21.92743986960266
C        -0.82366805071363    7.60542609417747   22.21176703372517
N         0.02910637225572    7.31725987562904   23.21484381226145
C        -0.98004828015679    5.43890996235989   22.74222437319096
H        -1.35058061710847    4.43708998610690   22.68009707669456
C         3.43371649519756    8.77890023606126   21.06538185546735
H         3.51018118658020    8.35538627964702   20.06658511109175
H         4.43435073431172    8.81042321751690   21.48772626882429
H         3.05638834600370    9.79511180112360   20.97999776526061
C        -0.05278044570459    5.99459274411730   23.55745370082797
H         0.53779964798138    5.56841444523561   24.34201529351953
C        -2.02798020182849    5.97243505979865   19.61754078222988
C        -3.01553713255141    5.74478171718050   18.66862084713001
H        -2.73964499494736    5.49984065386065   17.65593912946184
C         2.17444430114867   12.79349339703974   21.21829108134772
H         2.93532103922952   13.55762269879017   21.18548897061079
C        -2.43056572415845    6.25849060093873   20.92558220456867
C        -3.77561583417470    6.35196625105406   21.28540759307312
C        -4.72982609558428    6.12918167697051   20.30094847134222
H        -5.77744494876051    6.18369081574685   20.55034446506477
C         1.57533991340324   12.43687517434801   22.41775325015946
H         1.85432275309607   12.90663372404049   23.34609874422500
C        -4.35364288889323    5.82126693772642   19.00827231846709
H        -5.10799148254846    5.63353684839318   18.25946967031827
C        -4.19534288145475    6.65511727388573   22.70426760619294
H        -3.30851035996912    6.90011480029608   23.29682564606387
C        -4.91614516841310   11.12025977600129   20.44477856537327
H        -5.56913738681679   11.86403359830944   20.87338991225073
C        -4.86317601244747    5.42705265717678   23.32837633320616
H        -5.76543421738517    5.16080561090783   22.78457213363772
H        -5.13287317202633    5.63224695494511   24.36135047453948
H        -4.19018362010030    4.57266770655772   23.31147514122280
C        -5.30638369997428   10.38867045514620   19.33891560292772
H        -6.27280959130463   10.54807756800386   18.88682911712017
N         0.22150312889775   10.83355252157358   21.28736296203212
C        -4.42347188766406    9.45084779427541   18.82167293276896
H        -4.67391911466903    8.85956386916489   17.95681687854909
C        -3.20398328532363    9.28471134065940   19.44415757940326
H        -2.49300257148070    8.56075285909839   19.07542471297804
N        -2.83151933965475    9.98012467814626   20.51939799328037
C        -5.12767683955858    7.86632865553706   22.75765675184495
H        -4.65520915892586    8.72680812766002   22.28960901227452
H        -5.35320612989137    8.11351683532748   23.79216023473689
H        -6.06487850402763    7.66693272150912   22.24613472153153
C         0.60462415918012   11.45554442361976   22.40115128340080
H         0.11924611734110   11.14464133091234   23.31511017655146
C        -3.23318258159465   11.67176416000815   22.21683674168039
H        -2.14898946049423   11.66796655196492   22.29761331212677
H        -3.64677194986866   11.22319514603286   23.12026362175994
H        -3.58915130901605   12.69734822703716   22.15851745009009
C        -3.66736475199295   10.89629439731656   21.01781799189559
C        -0.56192111637665    5.87662755425666   19.26140257781200
H         0.01172931834263    6.45544500982453   19.99444561147671
C        -0.25293929314710    6.44811176573961   17.87664728065997
H        -0.62208236398805    5.79645826936330   17.08990456351903
H         0.82339193754399    6.54032620761033   17.75070292323342
H        -0.69975900124584    7.43235435978054   17.74856450738492
C        -0.10967207016798    4.41497651247456   19.34036573319049
H        -0.68509305564711    3.80473894144087   18.64853643415444
H        -0.24667339040619    4.01837265029855   20.34352562204895
H         0.94273394592642    4.33400205643450   19.07999960183992
C         0.35271661024794   10.42149083460967   18.90883027108049
H         1.01960663495523   10.60779699702404   18.07207500705751
H        -0.65201424855238   10.74109520080324   18.63209366099926
H         0.31980969287854    9.35243658672565   19.11300331653131
C         0.80072959048224   11.15743821630623   20.12702237153271
C         1.77998263585937   12.14253738329714   20.06251199463626
H         2.22743972019382   12.38896274593524   19.11264379771599
C         0.89651794448642    8.25820065193039   23.83788171704754
C         2.57598491953393   10.05483706531121   25.06250150604895
H         3.23980199297466   10.75417081906062   25.54752268830793
C         1.36420950389431    9.74114578729229   25.64826119995424
H         1.09184881182239   10.20559845881288   26.58148158589238
C         0.50485720397259    8.82755940320929   25.05234570463805
C         2.94700890757576    9.47638875311405   23.86320605478365
H         3.89904626056655    9.73048688247470   23.42784834791390
C        -1.90017853282541    9.43832653569666   25.09860646000829
H        -1.95151859772904    9.35669067183096   24.01263281426034
H        -1.66257748348874   10.46729947066618   25.36150754757796
H        -2.87535345729584    9.19427857698880   25.51342261968584
C        -0.83702229206778    8.48818572847222   25.66242029619665
H        -1.10693202965644    7.46786387724016   25.36985122666439
C         2.11014507771451    8.57447164689748   23.22058365895622
C        -0.83243505164124    8.53905010108878   27.18959965208566
H        -0.77406740554808    9.56135167739922   27.55316017964383
H         0.00599912848944    7.97539566018241   27.59142687744918
H        -1.75259717624169    8.10354045366122   27.57168629401652
C         3.16439763686476    6.56404602500319   22.19909833969947
H         3.46758634135506    6.09510838913524   21.26616722572224
H         2.48491132228693    5.89065638592398   22.71540513104213
H         4.04762943648903    6.70223657904122   22.81824196794763
C         2.50206237833976    7.91744670287927   21.91666804134048
H         1.58726320096594    7.74739297545844   21.33643756585191

