88
CSD_code = BODRIV | q = -1 | S = 0 | Stoichiometry = C35H37O13P2W(1-) | MND = 6
W         1.53786594236705   18.08838307332651   -7.82859138079297
P         1.66583809237616   19.96987371806842  -11.49754569552412
P         1.15277165810695   20.04824414033660   -9.34364154114701
O         3.05277566905213   20.42884548733359  -11.69311774288614
O        -1.70830845739566   22.06232839692711  -11.30640945918466
O        -1.93732751201446   22.36465164235212   -8.55105059486086
O        -0.17385068544521   21.43653910836991   -7.49025432843863
O        -0.88820036165939   18.45611758616827  -10.07804557593586
O        -2.66585668566094   19.76396629110697   -9.60223104346163
O        -0.34296746474780   21.88754290074162  -14.14402455861001
O         1.31081203816650   20.33810677908107  -13.85564952370102
O         4.40527357484085   17.44744651958542   -8.92148572722266
O         3.16564236761912   19.62389878491400   -5.64721045065627
O         1.98632950133447   15.67704027489219   -5.89458266941535
O         0.30088384147203   15.90320330625558   -9.70499886439888
O        -1.30721596938427   18.58622199097078   -6.60148062478635
C        -0.52532784021126   20.73658595058286   -9.65392367098549
C        -0.71939656114467   21.38560899841812  -11.12153721599399
C         0.28330587930493   20.98868782797594  -12.00059054908213
C         1.43771446332928   18.22907237845098  -11.98950085804102
C         2.51359180912345   17.37714344134468  -11.79474936002419
H         3.43031720075701   17.78471851561379  -11.39314745312501
C         2.41444014067143   16.04205461548018  -12.14415048691646
H         3.25111019599769   15.37566121894179  -11.98468317739785
C         1.23818044691687   15.56175129638370  -12.69467550896528
H         1.15359652866830   14.51746368813174  -12.96302049952032
C         0.17001897011924   16.41899575052531  -12.90934644739402
H        -0.74236767679938   16.04127177134571  -13.35142844622086
C         0.26732591019865   17.75233108300954  -12.55842034419034
H        -0.55433547492243   18.43247376185611  -12.72900265871025
C         2.16304998870066   21.54334732353820   -9.12898352854659
C         3.45853273285110   21.36623109772537   -8.65473105394702
H         3.79726447568476   20.36766741934267   -8.40521749388760
C         4.31150758372755   22.44388306228057   -8.50970656690887
H         5.31565376713853   22.29106005328286   -8.13948356380233
C         3.87908332341103   23.71672167430902   -8.84195820136906
H         4.54163996880672   24.56344736525746   -8.72728473410160
C         2.59720265688213   23.89939132615339   -9.33284942474347
H         2.25876530954391   24.88870932764608   -9.60805152465036
C         1.74247142243614   22.82172319600044   -9.48348279405300
H         0.74975722105341   22.98955435670493   -9.87596738858206
C         0.32070285103712   21.18580020078570  -13.41402994488464
C        -3.66319354620549   18.75660638618374   -9.89501257225198
C        -3.50125172974780   17.56018713822219   -8.95788058814387
H        -3.51737534489651   17.89272691891744   -7.92217934696729
H        -2.55685130605689   17.05549712495415   -9.14664593782247
H        -4.31579181913928   16.85766959904554   -9.11754996985323
C        -3.55346095106295   18.33454810390031  -11.35965493805718
H        -3.52194429734557   19.22017762490029  -11.99153632925560
H        -4.41392136168812   17.72922757578321  -11.63512973807286
H        -2.64731118246972   17.75546557809209  -11.51860676036552
C        -4.98541066797206   19.47904692319301   -9.63840908299235
H        -5.82398087487589   18.82344838437989   -9.85796792126849
H        -5.03880961555293   20.36356833038408  -10.26679506563130
H        -5.03698303245440   19.79553805899384   -8.60009549195756
C        -0.99329390545296   21.62681872404470   -8.54057256486389
C        -0.36290519749952   22.20355938669201   -6.27587526801861
C        -1.73439020321114   21.90317899401321   -5.66973578378746
H        -2.52412854737608   22.26578701763727   -6.32154516686280
H        -1.81980530105602   22.38870684693872   -4.70057996307294
H        -1.85277761853724   20.82993091710151   -5.53920688252479
C         0.74614963875293   21.72640246512692   -5.34164693556460
H         0.63688545689004   20.66158625528257   -5.14909762595379
H         0.69888730544531   22.26491863272604   -4.39885031243927
H         1.71530032486399   21.89827849142144   -5.80276749992402
C        -0.19792541496687   23.69500261631178   -6.57000226319378
H        -0.98058088417381   24.03810256220580   -7.24078327564627
H         0.76890868379829   23.87251718887602   -7.03709210036336
H        -0.25435166718304   24.25847344667666   -5.64188897976823
C        -1.38901330663467   19.52735607617349   -9.78947051351772
C         1.74283459928396   20.29932439073442  -15.21860028036690
C         0.59629545832017   19.83293595879068  -16.12007446760265
H        -0.21836292116647   20.55093114641143  -16.07766000247249
H         0.23113574266167   18.86550651927436  -15.77974987880490
H         0.94304779952604   19.74122907104451  -17.14689015439519
C         2.88448941847065   19.28005512300137  -15.22553969816888
H         3.34322004305019   19.22822215300929  -16.20975329435145
H         2.50773478848882   18.29760831490093  -14.94965184169796
H         3.62760585714853   19.57453629815786  -14.48947695905933
C         2.25378347993817   21.67663098558494  -15.64663379661226
H         3.03208533779421   22.00095766620321  -14.95946999908368
H         1.43993081228795   22.39618591498263  -15.61812285740055
H         2.65877837578955   21.63080237503895  -16.65514587195415
C         3.34142782252303   17.72357351648575   -8.59880648152988
C         2.49504562491705   19.17877951242687   -6.46613131282572
C         1.81557859608240   16.55898650763105   -6.61831063245377
C         0.71320936025657   16.78911507331045   -9.11832087407871
C        -0.26218467187868   18.42832540331531   -7.04574004193720

