34
CSD_code = BODTUL | q = 0 | S = 0 | Stoichiometry = C15H13ClMoN2O2 | MND = 8
Mo        8.08740318616882   10.39391506283603    5.91157354574592
Cl        9.23347614212578    8.43304915116492    4.87024247811515
O         8.42122344914889    9.09168950902172    8.69232951653086
O        10.83492087022536   11.55328555677194    6.71658977063977
N         8.14499789092671   11.01826356931550    3.98129136814288
N         6.46709906429819    9.30668331402172    5.35366924798606
C         7.92054468721533   12.74342243625638    6.35430940145622
H         8.24373055842861   13.48693861728108    5.63020922584134
C         6.68033766576440   12.04666082253171    6.24459591554366
H         5.89242637764351   12.24819986229358    5.52434959785808
C         6.53672631903725   11.34024056215229    7.47553339387764
H         5.62092094628632   10.82605949658629    7.75566591740839
C         7.37289482532310   12.00242816951580    8.47248979518528
C         7.45206048544934   11.88303110342967    9.84423300553608
H         6.80344864690336   11.20921146956090   10.38472206572549
C         8.39279348535922   12.65623573574087   10.52004879455240
H         8.46464357802740   12.58305074454119   11.59514727748507
C         9.23701740828917   13.51232807996948    9.83615144182114
H         9.95950410796588   14.09879835167590   10.38425415888507
C         9.17338271733087   13.62871057210352    8.44977289800365
H         9.84344531901855   14.29176655609140    7.92230963976240
C         8.23513701188704   12.87701351491070    7.77388859258997
C         8.40147951180255   11.01774169350812    2.85931824486297
C         8.73333975971699   11.02367036640755    1.46550769370360
H         9.41032790165312   11.84968734375928    1.24621441107887
H         7.83104774215616   11.12437774113537    0.86206428659561
H         9.22717159435560   10.08249990775647    1.22191288364247
C         5.85642759227981    8.42168104652229    4.94304079372142
C         5.09740855613251    7.31244232523041    4.44685129604173
H         4.52935563841925    7.60712368251122    3.56442590065757
H         4.41303524821113    6.95274815266347    5.21551311650070
H         5.78820516703809    6.51229989072849    4.17923952091641
C         8.25668938869692    9.53713001953972    7.65002362143049
C         9.82687715671376   11.13811557246610    6.36521118215956

