36
CSD_code = BODWIA | q = 0 | S = 0 | Stoichiometry = C13H19ClO2Pd | MND = 5
Pd        3.54257397941110    2.77535679809561    4.02913207442728
Cl        7.20152141742755    3.15945376334743    6.75955754651512
O         1.56324833212744    3.46408216238151    4.19707363819299
O         3.43964206009270    3.20767425158556    1.97281695423695
C         5.57583053936278    3.59305146325649    6.13449983069874
C         5.62263949622534    4.85144872208603    5.26102704690285
C         6.73062687798951    4.88237753489932    4.21082091475257
C         6.53415022156693    3.88223978036057    3.07611788865127
C         6.66181148486362    2.41686998792220    3.51080854126671
C         5.43375098961894    1.88507786407108    4.20630908848281
C         4.98225862021031    2.38648469739195    5.45489423806401
C         3.74025190676604    1.89914405320430    5.90950829153120
C        -0.59179103063077    4.23436054808382    3.61447726161400
C         0.82884464928295    3.84815054943248    3.24925861101586
C         1.18253226430851    3.96152982802983    1.90158182499823
C         2.42608280498574    3.63606015067842    1.35642343405726
C         2.58372788259265    3.82365317428696   -0.14033565101074
H         4.98886728812265    3.81502992061284    7.03222682696296
H         5.74397772041135    5.71609680452841    5.91738198304197
H         4.63122465640118    4.93308967135687    4.76167619776614
H         6.75931376295823    5.88840501577992    3.78614537474613
H         7.69117437758616    4.70265146080203    4.69772374433504
H         5.54548454551201    4.03190953723302    2.62126442820553
H         7.28923126927668    4.08214445259289    2.31275617134779
H         7.53178416855194    2.30752397791637    4.16634351390935
H         6.83910921022195    1.80960370136373    2.62112910320898
H         5.23960491991743    0.82279161380275    4.02011296383105
H         3.31172897627199    2.31140300698311    6.81702159174032
H         3.46654494403934    0.85934264490567    5.71021026827692
H        -1.29888975645479    3.62849113011725    3.05404144962942
H        -0.76686908360182    5.27948751652059    3.36953663572777
H        -0.74803401514887    4.08264644920749    4.67923870117390
H         0.42287782048722    4.31412729031145    1.22085097402304
H         2.41540775467122    4.86516711115427   -0.40427513407256
H         1.85508509054671    3.21494895278043   -0.67085320357540
H         3.58637385409420    3.53102441290410   -0.44080312468234

