47
CSD_code = BODWOG | q = 0 | S = 0 | Stoichiometry = C16H25FeN2O2P | MND = 8
Fe        5.21028692396261    8.29739514283734    2.86258817227325
P         4.83927320126590    9.55618986842778    4.66845257447155
O         7.30309522764889    6.60862392684357    3.92118895622886
O         7.54251223208412    9.59143135036196    1.75272300635546
N         5.35737248130446    8.81808288228153    6.09627265971198
N         5.96174683637744   10.78353114299523    4.95787853440190
C         2.75127508883283    8.22170415080493    2.68428997600601
C         3.35813949783588    6.93307187684845    2.70745975617682
C         4.17403092590973    6.80478885976756    1.53006407867851
C         4.17829011511934    8.05538124683847    0.86837627224625
C         3.34906876691396    8.95525267570219    1.62728208594200
C         1.74478576665462    8.74983913788591    3.64193326004903
C         2.92584606898791    5.78248423577573    3.56646426868396
C         4.74830895653556    5.52435758759282    1.00796153078621
C         4.74322757243414    8.33296086925920   -0.49072310115412
C         2.94001196477467   10.33138638758324    1.19955967331387
C         6.41970823435810    7.25941264545556    3.56186391611361
C         6.57546133762378    9.17199607033612    2.22336402499326
C         4.84488731443034    7.53275101559154    6.49474446136582
C         6.75553329947410    9.07350447722720    6.40793533838970
C         7.18593266973458   10.25137651517951    5.52818402298150
C         6.12213335645099   11.87742718530163    4.03290585204895
H         1.17910488232051    7.94214488160101    4.09994564365855
H         1.05238457047655    9.42073986450037    3.13784264727715
H         2.23812101918134    9.32075912457869    4.44444386396999
H         3.74840499339069    5.09208917411552    3.73631647290045
H         2.12021309486968    5.23332569409960    3.07495217244058
H         2.56611107195108    6.12647540524421    4.53274767166474
H         5.03617940703232    4.86360626358533    1.82204321094255
H         5.62554735091036    5.71193432961959    0.39359123020190
H         4.00720533927099    5.00619614851346    0.39594448133540
H         5.01422016235409    9.38051772021538   -0.59762034688168
H         4.00110542298366    8.09413578186569   -1.25516873108854
H         5.62890536704662    7.73025418911950   -0.67695156096721
H         3.73262680624990   10.81566186664897    0.63452379910959
H         2.70832093260263   10.94930913477434    2.06444611401658
H         2.05282547943106   10.28073682828967    0.56482991740072
H         3.78849326929073    7.48514204643189    6.23551613503614
H         4.94959927332500    7.41497995707286    7.57568637844177
H         5.36412300184253    6.70177723429991    6.00092006997152
H         6.83892611469405    9.31459190317756    7.47372848916011
H         7.37523404688623    8.19089933385617    6.20781819679521
H         7.87439243799595    9.91186554488745    4.73929949962571
H         7.68576547794794   11.03335445790097    6.10708054904387
H         5.14612652297853   12.13211554976359    3.62272131224040
H         6.79743443048388   11.63568895673706    3.20523375470610
H         6.52190168576441   12.74554935825207    4.56223970896019

