51
CSD_code = BOFDEG | q = 1 | S = 0 | Stoichiometry = C22H20MnN6O2(1+) | MND = 6
Mn        3.58056098597233    3.56964148387959    7.20830265654967
O         4.95180186826760    4.74496023089124    7.26002019934321
O         2.28434643831925    2.32808576923247    7.41562595098413
N         3.15769464330751    4.40998665597129    8.94723586097091
N         2.38500556893312    5.01024902637676    6.32007495439935
N         3.81526910428460    6.76271093798987    6.91258433785333
N         4.70956998489623    2.10768007253994    7.91299623350689
N         3.97061588649346    2.83897358048439    5.30940207718474
N         2.82269698408323    0.83788165404756    5.69126263271156
C         2.35433686321009    4.00655337893701    9.92983469700182
C         2.09962067448778    4.78230733954514   11.04790540382426
C         2.69908502548739    6.02819673758026   11.15679029126940
C         3.53305607392426    6.45461446215941   10.13231092994416
C         3.73054767513230    5.61801405254051    9.05000044714537
C         4.59848651062278    5.93013419258321    7.83156161898858
C         2.76294807555224    6.29552290347255    6.19281960082019
C         2.07371465933458    7.18117102136317    5.34114076403403
C         0.96380262342245    6.74474076212975    4.66360830297332
C         0.54242785542572    5.42741616384510    4.84586940119082
C         1.28107595028116    4.61192962328001    5.66995643791124
C         5.94193331865782    2.13327119200856    8.41722106645271
C         6.62303653419836    0.98221254364223    8.77491957259736
C         6.00649962779854   -0.24833920340840    8.60443761733648
C         4.72393469454335   -0.27967928390129    8.07438292317542
C         4.11740550110673    0.91686635701957    7.74162627471741
C         2.72249213427722    1.06864800225934    7.13618442418798
C         3.41889065494101    1.70689113047020    4.83505387437676
C         3.46527022103985    1.38780495674272    3.46363765686014
C         4.12827225166485    2.21803402522850    2.59614824003214
C         4.74896648107153    3.35969900219229    3.10363599963468
C         4.63744715357900    3.62246751360727    4.44830215974444
H         1.89879008598531    3.03381922059882    9.79641499132693
H         1.44228460878811    4.41459633870251   11.81910264098704
H         2.52182935809555    6.65489101451335   12.01656807209551
H         4.15523696615630    7.68316340161802    6.68911444878329
H         4.01930911166959    7.41649541720872   10.17041992622660
H         5.48703478210524    6.52252014683918    8.11333460972309
H         2.30040418796660    0.07781314404025    5.28827056066435
H         2.42529483924451    8.19645254150493    5.24627276070223
H         0.42171948239204    7.41130575786912    4.01144900347659
H        -0.33744606925734    5.05079154502760    4.35252200048927
H         0.98775433934031    3.58429497595601    5.84754352622125
H         6.38822781263495    3.11392202108377    8.52063865933354
H         7.61963147932870    1.05112721387451    9.17999853413531
H         6.51061160241171   -1.16256485814813    8.87538757885116
H         4.20484308136108   -1.21239662879794    7.92044131379049
H         2.02935131445022    0.30413261309754    7.52976971196839
H         2.98699473435773    0.48424299213609    3.11979068274575
H         4.17758904113086    1.98575913584510    1.54392320695952
H         5.30054520882143    4.02564533814909    2.46198728346854
H         5.10918200868267    4.49284238416339    4.88819788031736

