53
CSD_code = BOFFUZ | q = 1 | S = 0 | Stoichiometry = C26H20ClN4ORu(1+) | MND = 9
Ru        4.42051548340715    4.53212261917510    5.39876769498538
Cl        6.62287100357201    3.87758377458277    5.80875417207794
N         5.40505273060250   -0.01092761895975    0.80012546934431
N         4.23048669703309    2.64441892591580    4.75049212277762
N         5.08949869942596    4.73192218661527    3.52170427446828
C         2.36059195961705    5.57818452324710    5.56472256108836
H         1.50583638399923    5.62036592433735    4.90063130699508
N         6.17431284582295    1.77210265215277   -0.27544552273399
H         6.59008303564721    2.32425039050291   -1.00689556637326
O         6.03249899702678   -3.97085795523206   -2.40256931903179
C         6.28930341509470   -0.42476450781808   -1.44238751931601
C         5.73452887098868    2.22034078820642    0.93328533432913
C         5.16620944280632    3.58157997578395    2.81555653800737
C         4.68654497684626    2.42400175107717    3.49570689558990
C         5.25570592594090    1.07075299089715    1.59271060168325
C         5.95724094120218    0.41917878842845   -0.31700653603082
C         5.71999062187836    3.51101661329821    1.51325567496754
C         6.20698705352810    4.70302332324916    0.95555839494358
H         6.64275096698196    4.71209234273177   -0.03094510707229
C         6.28291636679959   -2.64537797456232   -2.39423360068723
C         3.83469179959849    1.60335660709745    5.46448958430545
H         3.51658511131491    1.79318930493962    6.48139058571048
C         5.58074847487460    5.83558130837587    2.98124313314233
H         5.55435334485419    6.73660193917319    3.57948820500205
C         6.88948780584104    0.07636499036797   -2.59667285336985
H         7.13337111879720    1.12330669615473   -2.69409562761290
C         4.72669265738956    1.13955843815516    2.91256223907052
C         4.40710600811118    6.59901785994010    6.44513022870076
H         5.11878194103061    7.41627355463080    6.45209053269009
C         4.27741066507786    0.05803130223954    3.67806244223558
H         4.30228159420346   -0.93369781224590    3.25683006547467
C         6.88588539476064   -2.12844574622619   -3.54802258399338
H         7.11011191279253   -2.80722182518315   -4.35478522237627
C         3.83615278389806    0.30236954686158    4.96096789406358
H         3.49849412873233   -0.50311476041598    5.59278035361196
C         7.18246854067265   -0.78522056529515   -3.64021320657351
H         7.64775350270700   -0.40240129641327   -4.53528654098694
C         6.13660156738824    5.85837346626469    1.70210594908443
H         6.51773033491752    6.78866628348032    1.31339202722387
C         5.98795049879210   -1.78638603179338   -1.34414381575291
H         5.52624737607404   -2.12856556201938   -0.43355486537600
C         4.46390482134321    5.60804122719421    7.44841788520109
H         5.23662787027858    5.65773240511173    8.20831315144781
C         3.36008823824300    6.57275966693741    5.50240501163681
H         3.26129587326006    7.37944115797945    4.78332423569176
C         3.48263248467569    4.60360863883382    7.51423247796419
H         3.48253191610647    3.90003094854496    8.33853653947966
C         2.44481908960403    4.57865935713675    6.55380100410878
H         1.64535417667510    3.85031119826223    6.64382884007773
C         5.42864574886735   -4.55850062595916   -1.27171165535999
H         6.05429049623825   -4.44566568719482   -0.38141724928505
H         5.32729023328882   -5.61535812056753   -1.51084642562559
H         4.43908607137868   -4.13260737800127   -1.08113020962255

