31
CSD_code = BOFFIL | q = 0 | S = 0 | Stoichiometry = C10H10FeN4O6 | MND = 6
Fe       -0.96329052075676    5.59876575813645    5.07707316248625
O         0.49435723530106    6.23366076456318    3.86335445412439
O         1.27087958290621    8.08132579361874    2.87517120642795
O        -2.44581363972147    5.26006829767828    3.40493003989892
N        -1.44202922410920    7.41495498249208    5.01395027056038
N        -2.10203582610533   10.07382310066699    4.58509220050058
C        -0.70921073156113    8.19488826528978    4.20588998059799
C        -1.04960027480473    9.52485886883951    3.99973279625056
C        -2.82364318521706    9.29493443178663    5.37839122370444
C        -2.50486002344352    7.96387369399521    5.60249175309178
C         0.47639371774990    7.47020284243192    3.56196920359933
H        -0.45327544390470   10.14565039710553    3.34692194204647
H        -3.68256583335581    9.75285023440794    5.84770537825430
H        -3.07802855689359    7.31292425644000    6.24315108143184
H        -3.24392700631112    4.91730455309405    3.82388064924386
H        -2.20436497668581    4.66590092489001    2.68841177629065
O        -2.41994960821036    4.96351665296078    6.29245166098199
O         0.51518128852737    5.93815228070512    6.75281946158524
N        -0.48333475682422    3.78320791402702    5.14149021913817
C        -2.40118435413798    3.72693307644027    6.59395130538916
H         1.31466024116679    6.28506979327421    6.34004563761726
H         0.26848104573085    6.52763373524973    7.47144908014354
C        -1.21544287796513    3.00281722856148    5.94973276521885
C         0.57908426001353    3.23477976377183    4.55179747816141
O        -3.19518533817056    3.11554610048858    7.28106454906030
C        -0.87446952394407    1.67290290722898    6.15527977034494
C         0.89848014092701    1.90378022414308    4.77533158494897
H         1.15134801116029    3.88609396412978    3.91071700637044
N         0.17786035241055    1.12452106224496    5.56916672256765
H        -1.46998547676331    1.05172619107984    6.80845934071508
H         1.75727130299212    1.44633194025773    4.30532629924745

