56
CSD_code = BOFFOT | q = 1 | S = 0 | Stoichiometry = C27H22ClN4ORu(1+) | MND = 9
Ru       10.28311378265964    8.89914377406566    5.37279637778221
Cl       10.10711862252952    6.68808040564041    6.10229494818862
N         5.98448375482335    6.40175319772580    1.13198775943661
N        10.59641147145238    8.03643552011750    3.59389342542462
C         8.23686277470368    6.55827961920220    1.21187108719467
N         7.87274044192822    5.87734430936107    0.08942867124019
N         8.39071135045352    8.61578383605250    4.78358020857067
C         8.25374306443430    7.95958034869669    3.60799518975731
C         7.29850728393219    8.88895480480145    5.47888187782718
H         7.43207318349597    9.37615984732677    6.43591973369082
C         9.47660953030374    7.63679032577234    2.94946150656955
C         9.50444844123871    6.91250877761809    1.73196661191188
C         6.50393787656086    5.80437796514299    0.07815578699787
C         9.96216110977301   10.99759687807250    6.18129458355720
H         9.10099868934167   11.65641623186410    6.13417626120548
C        10.76317788939622    6.60832921553517    1.19190981818178
H        10.84826497764983    6.05829532962381    0.26812591020589
C         6.01971234813699    8.55812432556635    5.03140694421150
H         5.16945449494161    8.81155356659882    5.64359520388781
C         7.02270948135273    6.87599759855542    1.85166465195258
C         5.85604590212267    7.90509034583735    3.82838016988541
H         4.88574870728414    7.62421832115451    3.45276918614391
C         6.99776124442425    7.58248646325972    3.08704571574439
C         5.72977440632898    5.15558268211886   -0.95569284829780
C        11.88951016091896    7.00887616388220    1.87644520469268
H        12.87297837721141    6.77716781107736    1.50114363579622
O         2.19638358443662    4.46105592294478   -1.72737148507128
C         6.32312383731221    4.55837599796356   -2.06681175028414
H         7.39424819955329    4.55942041890368   -2.20026085153300
C         4.33936337719885    5.14067291642436   -0.81110031895677
H         3.92576668127002    5.61372383963871    0.06330760350357
C         4.15221519225033    3.93509779796844   -2.88253993171403
H         3.52148392025479    3.46557688657970   -3.61984698807552
C         5.52373843790895    3.95269105297334   -3.02145488598555
H         5.97790342383999    3.48896367242452   -3.88337345649939
C        11.77003988137404    7.71125408320224    3.07519414128336
H        12.65385031718756    7.99669191024786    3.62986001045060
C         3.54301517917978    4.53138530049665   -1.77117760558554
C        10.96101540583051   11.09120623305936    5.19396178123137
H        10.88115513355388   11.81887803115650    4.39578091509726
C        11.30211964714369    9.37789078424126    7.44948829928208
C        10.14047362909064   10.16264497265435    7.31040630043586
H         9.41965709805586   10.19152068342770    8.12023919455272
C        12.11352621154371   10.28229250179392    5.31457756741064
H        12.91749952771851   10.39333147629411    4.59429635908456
C        12.27811399466417    9.42612271999043    6.41644731313368
H        13.20217206665531    8.87201093734061    6.54029975593479
C        11.52118382280530    8.52350296996009    8.65178944811228
H        12.56247232432598    8.55674446937723    8.96550595353357
H        11.28122774698669    7.48619482320488    8.40399511033771
H        10.88305698087440    8.82961317160382    9.47684210979536
C         1.51846479009217    5.03731037345341   -0.63326371156134
H         1.80977381916672    4.56583397475133    0.30995289706101
H         0.46109510054778    4.85615145705651   -0.81643854293369
H         1.69771230371225    6.11500276213386   -0.57528875159825
H         8.48948899806540    5.48751019406671   -0.60361410221177

