40
CSD_code = BOFJEM | q = 0 | S = 0 | Stoichiometry = C19H12Br3N2O3Re | MND = 6
Re        9.66336553305466    1.23178051491151   -0.03770768763566
Br        7.86561004882328    2.17450387824577   -1.67150782173039
Br        2.69716095216876   -3.25708024607398   -1.79314106315748
Br       14.50407991253977    7.88702151006536    1.53566569003895
O         9.67681310594793   -1.31638085059665   -1.79911639125808
O        11.74936630970657    2.57392244976843   -1.89300932667594
O        11.74403990141284    0.23935111270481    2.02357815873528
N         8.04932019724901    0.53634146030693    1.09187784345139
N         9.32145228382224    3.02164242142652    0.97858379735500
C         7.41452250586763    0.48828191702538    2.42521680533609
H         7.88361102799311   -0.14385955569659    3.17139938714238
H         6.97970234308422    1.40609971168445    2.80529889155521
C         6.93979734934116   -0.08065209723793    1.16744855409399
C         5.95764168091415   -0.81976100592940    0.47134579577103
C         6.05073502273983   -0.99724835025436   -0.91639797431459
H         6.86836375277594   -0.55405044909935   -1.46209552935049
C         5.08493283617975   -1.71530499975092   -1.58645644432470
H         5.14801029983618   -1.84895813530343   -2.65498327271108
C         4.02616077766300   -2.26234038070331   -0.87380318616852
C         3.91574400061060   -2.09663596513573    0.50161016706742
H         3.08196146854687   -2.52920209405418    1.03270085738852
C         4.87752808743369   -1.37443778908455    1.17248699639564
H         4.80649048123349   -1.23458526428375    2.24096406610791
C         8.25213136997501    3.95730624970323    1.39323321683146
H         7.55292864410150    4.28257540930317    0.63079775283186
H         7.82751055790139    3.80940769136145    2.38124844814376
C         9.67998083417687    4.21326424479622    1.24741129935306
C        10.79537271928654    5.07760529473589    1.31623234464869
C        12.08257593123481    4.56125357007722    1.10378533607882
H        12.20249677061426    3.50752402702497    0.89581942233911
C        13.17867919625940    5.39231003840865    1.16831542102608
H        14.17193810972661    5.00325160471525    1.00693896382955
C        12.99380878768294    6.74190812439427    1.44272924997216
C        11.72705992278151    7.27101039372606    1.65539584274638
H        11.60955071333078    8.32283531952728    1.86539451369966
C        10.62924818739901    6.44026804661978    1.59520433805379
H         9.63732646404508    6.83556932669370    1.75465336883576
C         9.71758991790127   -0.39901621381830   -1.11755206416012
C        11.02258686109951    2.05580639383254   -1.17778934357081
C        10.96040513353314    0.59527268592403    1.26542357622700

