36
CSD_code = BOFLUE | q = 0 | S = 0 | Stoichiometry = C17H12ClMnO5 | MND = 8
Mn        3.36133557035369   -1.82429567625618    1.48103033123393
Cl        3.84439914452661    1.10697818811209    4.08327466242265
C         3.17258693241175    0.40416716070585    2.64899906729165
C         2.09180464639440   -0.42412019168619    2.71922676548045
C         1.43876511843473   -0.94098475099573    1.53154993698254
C         2.00546781191655   -0.59739628272901    0.25703266435880
C         3.28657188405193   -0.01181093875727    0.26609982358877
C         3.59033442402831    1.02871517307566    1.34044416909639
C         2.87114103092985    2.33505830381285    1.04835122700185
C         1.53446619348124    2.52561380229050    1.37449515019328
C         0.89753484190405    3.71031112708518    1.04877386757876
C         1.58530124755127    4.71370738643180    0.38800739896305
C         2.91677356823702    4.52936742390969    0.05639123055162
C         3.55514144009967    3.34732285900322    0.38574132010936
C         1.88655518965963   -0.79306157595285   -2.11542179999800
C         0.09023507344946   -1.48841043658600    1.65510672350754
C         3.13680124337145   -3.07853211190973    2.75257600327559
C         3.40402409078855   -3.07804321126727    0.20312030073445
C         5.14188493145473   -1.65768093420010    1.62402678372015
O         1.30812788250291   -0.96603232461258   -0.83696866026606
O        -0.51645051718168   -1.59320157328067    2.69620265711210
O         2.97252627523059   -3.85617546194425    3.57322186617477
O         3.39752175529392   -3.85763813210193   -0.64142637511719
O         6.27188665834419   -1.48899837449244    1.70302366019994
H         1.64745182632936   -0.68559957377583    3.67628161069760
H         3.74021500313593    0.22107257536395   -0.69478822106602
H         4.66643476026898    1.23245878193075    1.35056793166142
H         0.98233150979000    1.75512849479638    1.89402403334389
H        -0.14027022261818    3.84758865075767    1.31392933571131
H         1.08606515587672    5.63686418963432    0.13492335639621
H         3.46168138137074    5.30804269105959   -0.45669217000593
H         4.59612978215793    3.20869199823132    0.12831957498279
H         1.12981274042203   -1.12969588472395   -2.82120083253771
H         2.78668735658631   -1.40569807363340   -2.22564778612488
H         2.12453179281649    0.25740834665436   -2.30786760484917
H        -0.35720752337311   -1.78932164395011    0.69007199759713

