70
CSD_code = BOFNUG | q = 0 | S = 0 | Stoichiometry = C33H34IPPd | MND = 5
Pd        1.86900872532309   12.93839976418947    2.81811045701950
I         4.45863310952724   13.05811711850331    2.60522753077675
P         1.43880694031920   15.09623654892398    2.30107237376129
C         1.94654078032835   10.86002663862299    3.15315847120204
H         2.59063809174940   10.46439882368932    3.94634267266919
C         0.72623992729317   11.39858407407134    3.61682682786728
C        -0.14053471936696   12.17635874353449    2.81735526321472
H        -0.93408650086747   12.67138383653265    3.38631523569239
C        -0.57958843710734   11.92711933571795    1.38975390711831
H         0.26021944026995   11.84019024311576    0.69111000222679
H        -1.15067987678892   12.80868261439387    1.07862880469828
C        -1.48912695027905   10.69381403667050    1.23177761985030
H        -2.09061754449351   10.56646314426340    2.13566115980391
H        -2.18002698608536   10.89946966361497    0.40995246385108
C        -0.76964329782436    9.38192788072782    0.90610056309171
H        -0.10072401250431    9.54392323611898    0.05801026126521
H        -1.53169748134118    8.67404674934789    0.57150008537250
C         0.01029900419163    8.75423483426300    2.07296697178943
H        -0.23289988881352    9.27388379166101    3.00195419630922
H        -0.30778632720517    7.71706248470366    2.20092087659730
C         1.52649507531069    8.74751406976119    1.87927349820949
H         1.76771228168829    8.23088358383158    0.94725617413605
H         1.97792212864423    8.17988425472954    2.69764855784000
C         2.16745495523260   10.14232035908556    1.84523944767534
H         3.24541058192000   10.01908434903294    1.69977773452039
H         1.78705807779692   10.70441286295407    0.98542897696595
C         0.58822096210171   11.59205594868466    5.08989760381772
C        -0.48783004484006   11.03726204887567    5.77172214508115
H        -1.21148540980996   10.44099943062889    5.23226237938655
C        -0.63364212856591   11.24457960117066    7.13209730910788
H        -1.47187589817350   10.80604796284229    7.65349728429755
C         0.28696399405915   12.01580796806476    7.82093603042048
H         0.16719574938704   12.18172668529379    8.88121785360508
C         1.36021636591725   12.57745619321362    7.14853885363618
H         2.07716701320440   13.18408019386554    7.68203479038638
C         1.51483606152556   12.36722183765637    5.78993542225107
H         2.37276036271313   12.81760962196804    5.26836020283372
C         0.70791277151908   15.01296301908675    0.64010817849696
C        -0.45071976395550   15.65178521072004    0.22029940200951
H        -0.98710192079920   16.30342888632421    0.89576413957776
C        -0.92415557648177   15.43716307563406   -1.06382846172777
H        -1.82694980358607   15.93303034139878   -1.39022394516118
C        -0.24946168202309   14.59029762453048   -1.92699411937201
H        -0.62466255538845   14.43036267456601   -2.92697530346902
C         0.90060159526876   13.93803227871041   -1.50680787814068
H         1.42028504843708   13.27006585505733   -2.17823766171028
C         1.37212274162975   14.13821567978795   -0.22397254892320
H         2.26904472851632   13.62095030172280    0.12662670345877
C         0.31952683846829   16.07439112741579    3.34875927691296
C        -0.16630171932600   15.49068768220591    4.51263861797163
H         0.11594367602338   14.46891582315374    4.75380706306984
C        -0.98434124608162   16.21095928902792    5.36451039524363
H        -1.35705731421905   15.75379049603109    6.26961334178244
C        -1.31589767039065   17.51942307067364    5.05548188630179
H        -1.95605193827622   18.08429903669603    5.71691280802442
C        -0.81517176689809   18.11322417693212    3.90626864694170
H        -1.06300652918920   19.13966595844855    3.67806693834158
C         0.00886455461772   17.39938936669289    3.05683380316731
H         0.42551255265633   17.86625758918176    2.17439660283992
C         2.79425703624352   16.29133869567994    2.11088802826281
C         3.12007035896913   16.92000859316423    0.91733025916881
H         2.54850334091300   16.71858663748200    0.02148098854754
C         4.18828055669456   17.79975473490936    0.87958790195240
H         4.44545226044760   18.28722266526199   -0.04951754471411
C         4.93003791942230   18.04805009596908    2.02148269693406
H         5.76754340546491   18.72840262999599    1.98174247458952
C         4.60856126377113   17.41670492941284    3.21323193248251
H         5.19590078439216   17.59999392888382    4.10021113659455
C         3.54430756676187   16.53964398433475    3.25774298455194
H         3.29079636322826   16.01992400635077    4.17560124818025

