71
CSD_code = BOFPES | q = 0 | S = 0 | Stoichiometry = C31H33IO3P2Pd | MND = 5
Pd       11.27922405612257    4.71051822297696    4.73582862658992
I        11.71938267913316    5.24073359346769    2.25281286491540
P         8.85390848647498    5.98078501337805    4.50587450373334
P        12.00389386712678    2.58594425859752    4.72346387918312
O         8.59048774230750    4.53472827134135    4.53537744205970
O         7.86730279015345    6.84556500806509    5.46956746266549
O         8.56379037239526    6.51218569094486    3.03634472745696
C        10.69668763181581    4.91803903996491    6.78170055925581
H         9.65059012790304    4.61988030424108    6.77496497826462
H        11.26430424094225    4.54973452813206    7.63464917086475
C        11.05458841089840    6.16753802753106    6.23983385929679
C        10.44438983120519    6.61542049163653    5.06022312039661
C        12.30902770802347    6.83134510867441    6.67701531420325
C        12.46879281928202    7.24632655234380    7.99377685938239
H        11.66160018692456    7.10375696550954    8.69870428113669
C        13.65025833274624    7.84589736525051    8.39258403460477
H        13.76607658373530    8.17176080970132    9.41576264034320
C        14.68243624020701    8.02285471312756    7.48614513445425
H        15.60491404746490    8.48608934001982    7.80321363363950
C        14.53318222121224    7.60253387348331    6.17441774125551
H        15.33805912475796    7.73108032462989    5.46622950866232
C        13.35041949465092    7.01321985430351    5.76611906548863
H        13.24534441621080    6.67587394811381    4.73166399322725
C         6.48366598244142    6.52613757479757    5.42156835720533
H         5.95119141735501    7.46300059640208    5.61692587920089
H         6.22510439188512    6.16821135747572    4.41857794321883
C         6.12736566285100    5.47245927428520    6.45628987076465
H         6.65698906861109    4.55096154626064    6.22933686498313
H         5.05719643554309    5.28381150892657    6.43792021752789
H         6.41454592513974    5.81136679023062    7.44922719978784
C         8.71984862062889    7.86900857767614    2.63778911687927
H         9.69733012199923    7.97010843826382    2.15320069856722
H         8.67534562973958    8.52398432892141    3.51630435400520
C         7.61319986408276    8.21441706732404    1.65647313319532
H         7.64680499803912    7.52510403876542    0.81741422624992
H         7.74973163981277    9.22871831877542    1.29185805261081
H         6.64075907576901    8.13463711053076    2.13716265119136
C        13.73584536208712    2.44394483472097    5.24865758496575
C        14.30896267981608    3.54406587418511    5.87652982434668
H        13.71460641596546    4.44662321178882    6.01149521322000
C        15.61983533609441    3.49591090214059    6.31414707668803
H        16.05933447313600    4.35665111248110    6.79673658937272
C        16.36424892098318    2.34331529021527    6.12523172878668
H        17.38920139632018    2.30137290530123    6.46276959174334
C        15.79956085731962    1.24449443727391    5.49524537139793
H        16.38545206695284    0.34960660745000    5.34431158910046
C        14.49000063685717    1.29012089396744    5.05414462886797
H        14.05139174234303    0.44081536723320    4.54809867314660
C        11.06564020510693    1.53844791736433    5.87809108292720
C        11.63097573437158    0.60313456232141    6.73446662027160
H        12.70233311739207    0.46056937702062    6.75378666330419
C        10.81454412514053   -0.13720100147463    7.57280497098682
H        11.25332803789525   -0.86238398428391    8.24289789267098
C         9.44211366237030    0.04861153570961    7.55652326065298
H         8.81243156902088   -0.53352354413332    8.21344733763899
C         8.87625477957832    0.98510710528314    6.70474977238355
H         7.80609892255960    1.13315148932851    6.69611385394304
C         9.68461041416198    1.73393440877176    5.87050946855773
H         9.25798441098970    2.48270866647781    5.20703790355842
C        11.96819027376891    1.62923152300778    3.17904493450960
C        10.92610164167963    0.76006060344892    2.87615943722658
H        10.13214714093147    0.59448487095970    3.59094125497226
C        10.90679909755916    0.10813934462501    1.65583448498714
H        10.09604670398005   -0.56712827323332    1.42413324206004
C        11.91476186071190    0.32604200727303    0.73196189215050
H        11.89079839020299   -0.17962152195970   -0.22186277758155
C        12.94805380859728    1.20131581876471    1.02624238745329
H        13.72743727225096    1.38547275149589    0.30270758062574
C        12.97576340902459    1.85445183201870    2.24280019748088
H        13.77091926540496    2.55204789476722    2.46935938722417
H        10.76918602389318    7.55608734515107    4.61955931423558

