66
CSD_code = BOFPAO | q = 0 | S = 0 | Stoichiometry = C31H32IPPd | MND = 5
Pd        2.78560199500573    5.14768154655733    5.99003983999269
I         2.65574815672002    5.66750631162980    3.44529370651174
P         3.51890840297232    3.01109594843870    5.78129993667347
C         2.76489390596460    5.24263562385267    8.10082976094859
H         1.79844053439695    4.87622772574235    8.43726446411810
H         3.59380834524265    4.87622450892643    8.70425436312866
C         2.89440507160506    6.52673286238719    7.53229998625949
C         1.95541676320350    7.01253086818606    6.59805239854560
H         2.26567267746736    7.93915372983309    6.10728650060529
C         0.43205596472592    6.90809043285202    6.66946462830765
C        -0.02957527597533    7.42856495266004    8.03965710833127
H         0.35895880762718    6.81279236979433    8.84899413460401
H        -1.11646356430183    7.42267884069849    8.09347998353095
H         0.31687624663856    8.44901566148591    8.19339702120264
C        -0.15060452494684    7.80891012884440    5.57149729096330
H         0.17578504272661    7.47075646600899    4.58978124309957
H         0.17138947168820    8.84006154844670    5.70427549233276
H        -1.23801651010892    7.78704780887256    5.59935018453717
C        -0.11957246034989    5.48505143045893    6.44445350127795
H         0.04151638464629    4.84134964444630    7.31174419951310
H         0.32283052805278    5.02637727533728    5.54214348240560
H        -1.19575788841908    5.54289746490730    6.28276608163435
C         4.22614786451348    7.18464514650758    7.59643856171070
C         4.94563296870885    7.47226573100016    6.43533741399355
H         4.53655207080736    7.22474332790071    5.45492150628516
C         6.19233473479917    8.06620903096519    6.51785047302438
H         6.74386197118714    8.27642479694954    5.61332640142105
C         6.73066307195568    8.38584427547173    7.75340954297398
H         7.70338344833922    8.85088841538341    7.81622793941479
C         6.02031146406472    8.10638380862627    8.90878404000916
H         6.43639785494255    8.35475926255700    9.87426461286986
C         4.77716020058860    7.50437228845629    8.83264420569204
H         4.22244247074592    7.28468887025742    9.73480486833163
C         3.29118402405849    2.00007548347433    4.28614495409991
C         2.36641172677242    0.96718809432662    4.19134876794809
H         1.75774708462673    0.69864703279973    5.04366633274765
C         2.22969411518354    0.27363315716272    3.00161200918740
H         1.51192717778932   -0.53097204465669    2.93320080068678
C         3.00222095870642    0.61052285745425    1.90326327469171
H         2.88502579396670    0.07052751456533    0.97556450947021
C         3.92166709090466    1.64342748568619    1.99311917852486
H         4.52007276902430    1.91505329705551    1.13693239143458
C         4.06709997024729    2.33644251059891    3.17836882173177
H         4.77785388667355    3.14887785776354    3.25060405866802
C         5.31954807185907    2.91205203822360    5.98825860059323
C         6.02742538200699    1.72165192633061    5.84532572750882
H         5.50114451730867    0.80968476689521    5.59639336918184
C         7.39973823085856    1.71987030983870    6.00983456015344
H         7.95194350460879    0.79747743161268    5.90326073806024
C         8.07080386623130    2.89796522076629    6.30454377297838
H         9.14355242380977    2.88727074914332    6.42901816593465
C         7.37193269365021    4.08721008796109    6.42698452598328
H         7.89330499743206    5.00844057610178    6.64262793301788
C         5.99798405395039    4.09290694789788    6.26690944980175
H         5.43670092907651    5.02573256771399    6.34435628405632
C         2.80289951782650    1.97756770728902    7.09622172226730
C         1.41250653895993    2.03544271038768    7.19301467539382
H         0.86264029550415    2.64222129443073    6.47683195143140
C         0.75040564180549    1.33317738829002    8.18039401223896
H        -0.32723597910672    1.37521960628273    8.24798474117884
C         1.47657903724517    0.57970568381666    9.09083739076966
H         0.96376192688027    0.03385299776786    9.86891581005497
C         2.85801511925826    0.53476159839066    9.00954836078287
H         3.42151425476560   -0.04462537226047    9.72650072591864
C         3.52584990253851    1.23145855197984    8.01579825539962
H         4.60507428034308    1.20162386046725    7.96347925385572

