74
CSD_code = BOFPIW | q = 0 | S = 0 | Stoichiometry = C32H35IO3P2Pd | MND = 5
Pd        3.84597375276273    0.93906435754606    3.71940142292421
I         1.62795363028680    2.21882548671779    3.41542519838090
P         3.74203316434356    0.78686463504802    5.99514238863721
P         6.42674576909417    1.99923203182582    3.35562856689931
O         6.19536918103549    2.88497274494336    2.21958961831309
O         5.81280508842195    2.58600085343618    4.75964496385636
O         8.01720402839523    1.94282530356590    3.59238766439408
C         5.79004692639912    0.31618638229338    3.35595643627222
C         4.99134578098124   -0.12429588303158    2.27504457628185
C         4.15742608172337    0.79183848884007    1.61042963224820
C         3.11945288318951    0.31255105787936    0.63140866262243
H         3.58103408240267    0.14522394086802   -0.34455661394059
H         2.34344156338183    1.06593443090351    0.50457736784617
H         2.65390779097718   -0.62005704763423    0.95805812759692
C         4.81421324794971   -1.59124114144235    2.12499619298036
C         4.35516703767473   -2.34717127223269    3.19979001334482
H         4.11483549197973   -1.85152961672940    4.14033710856620
C         4.20270651840323   -3.71583003895753    3.07837775584562
H         3.83667622999208   -4.29212213653927    3.91546381112072
C         4.52127721943969   -4.34253797629046    1.88511406120494
H         4.40437152190366   -5.41150967413856    1.78838984659584
C         4.99063831400369   -3.59722611220895    0.81585937838505
H         5.24296977195667   -4.08550390374543   -0.11362398994900
C         5.13487843223948   -2.22625234325951    0.93040789405755
H         5.50442463646059   -1.64383232960140    0.09889630206629
C         4.97594207547781   -0.35208499306516    6.71393770907188
C         4.71927670279450   -1.71597901834150    6.82417593661686
H         3.73572915353813   -2.09942765302252    6.58575480079674
C         5.71163259954562   -2.57951025430489    7.25316473579253
H         5.50325163367032   -3.63620071234476    7.33578303200276
C         6.96683812198615   -2.09289086656404    7.57814957165020
H         7.73978315471191   -2.76848324219817    7.91298214194520
C         7.22818697377742   -0.73523239953597    7.47644365403941
H         8.20508139797272   -0.35248074309283    7.73690284764689
C         6.24193458070617    0.13004600479421    7.03977098074900
H         6.43762890726648    1.19058661114836    6.95520444101718
C         3.76147347385014    2.19182125022534    7.14906131093330
C         4.17926416999129    2.05847309926816    8.47135538112147
H         4.53219517917841    1.10370212494780    8.83763421533335
C         4.14911653330112    3.15186138977071    9.31769458785029
H         4.47597823597892    3.04402547312998   10.34204743701956
C         3.70057621765855    4.37975058350997    8.85689821300564
H         3.68178380532237    5.22992337426735    9.52250623066983
C         3.27534615207690    4.51331653070516    7.54577871164264
H         2.91889441029125    5.46655841883318    7.18545131748314
C         3.30507978598417    3.42381208094703    6.69337830864779
H         2.97188182537480    3.52296971438266    5.66959822398546
C         2.17972855336318   -0.06537856961392    6.40710203821452
C         1.59528481103902   -0.00403344501770    7.66635592513957
H         2.05180730392725    0.58727797723782    8.44693825973135
C         0.41816283482998   -0.68733163036351    7.91413858716404
H        -0.03771933398404   -0.62928526428384    8.89157680241729
C        -0.17938647536441   -1.43603259125837    6.91385237513306
H        -1.10199206346990   -1.96108260916448    7.11097801743474
C         0.39847731848553   -1.50063178750977    5.65636617113488
H        -0.07180363825543   -2.07285897792092    4.87083538338046
C         1.57148134573923   -0.81543711056101    5.40278405604434
H         2.01104845309164   -0.83905021412950    4.40226720259593
C         6.12567437393748    3.95442771859374    5.02730968603412
H         6.66969135068104    4.36720916749984    4.17072783101246
H         5.17794348503659    4.48973135623023    5.13330704534587
C         6.94705046851898    4.08133437569228    6.29892229846609
H         6.39015829391925    3.69072938756347    7.14855032234143
H         7.16869178372750    5.12944090849231    6.48089070682285
H         7.88397120586761    3.53641424631493    6.20413449615825
C         8.69616180854846    1.09399590686080    4.49971571820778
H         8.00307897722590    0.70019088737140    5.24976910860734
H         9.44389574252292    1.71696200589815    5.00344447630556
C         9.38653694702455   -0.04231607663273    3.75987430690689
H         8.65673805548421   -0.66482764882439    3.24608731748389
H         9.94321554728009   -0.65600438045624    4.46359990817531
H        10.07051840434778    0.36260526370387    3.01863851499019
H         4.53023157124440    1.79823246855387    1.41235801273986
H         6.35697963908741   -0.42404837576892    3.91625525653198

