87
CSD_code = BOFPOD | q = 0 | S = 0 | Stoichiometry = C32H42Cl4N4NiO2S2 | MND = 4
Ni        0.20310512973921    4.61552935132156   18.79917933491387
Cl       -1.00819522325192    5.83862081578857   15.20607178278640
Cl       -2.60935756290131   10.58409935092245   13.36540241502433
Cl        1.56544276419234    0.19123950326145   15.05731581527033
Cl        3.34623548918430    3.32814411946857   11.14483005240104
S        -0.57258560331408    5.49566691075664   20.60915210146212
S         0.67064757156451    2.78529306460038   19.82182622744628
O        -0.20769311347730    6.17558074379815   17.81526834412609
O         0.87838879042650    3.90957108662561   17.20366885370034
N        -1.24588772442257    7.72570075298933   19.17305727126228
N        -1.27989402730428    7.88490912663946   21.42423788433366
N         1.46964213161640    0.36103468175128   19.27426705350559
N         1.57034215172785    1.71671046884419   17.46002459417958
C        -0.89060144819332    7.20614042265190   18.00824618651539
C        -1.31814020411382    8.01303763129718   16.83240279220851
C        -1.38510170728792    7.48350962948227   15.53974320740900
C        -1.78891744438713    8.27872581879675   14.47497379461277
H        -1.84247327586116    7.85679132291452   13.48452846173995
C        -2.11806573143078    9.60455292694941   14.69486002900548
C        -2.05803009606188   10.15162780300015   15.96960371594132
H        -2.31686032713122   11.18614704672223   16.12871697342472
C        -1.66226364056727    9.35124202215587   17.01989078767201
H        -1.60622514168396    9.74766433483951   18.02037503749732
C        -1.03722880202919    7.13549631731183   20.34083586184000
C        -1.76392595569762    9.24020393611579   21.25760481582169
H        -2.29717960653266    9.52532158267796   22.16658435108936
H        -2.46155035295331    9.25096239000628   20.41716289215656
C        -0.62280092509215   10.22212909066748   20.98132230840157
H         0.07627423999479   10.21503527104429   21.82058885695195
H        -0.08494092447914    9.88283845977688   20.09469808469601
C        -1.14084026734358   11.64000592704172   20.75698615487753
H        -1.87080543119613   11.63276995249204   19.94446697637225
H        -1.65297460219543   11.98653769715917   21.65755546687883
C        -0.01061216572124   12.60199418493230   20.41280613053236
H         0.49688487145160   12.28280387994539   19.50535121724908
H         0.71952102218745   12.63760327390796   21.21818319104492
H        -0.39700768487536   13.60602182194345   20.25572763246709
C        -1.07385147889405    7.39747184464095   22.76738665799336
H        -0.82174046455628    8.25061862048879   23.40216085472482
H        -0.22988813633360    6.70289342411600   22.76435293807180
C        -2.31055898396582    6.68116696327127   23.31619138014700
H        -3.16137202159498    7.36635567429244   23.30931405394432
H        -2.54618335661930    5.84276280023601   22.65985107107555
C        -2.07407150283844    6.16744184083302   24.73326460199703
H        -1.82944032100173    7.00658989631957   25.38908809743035
H        -1.21941320547626    5.48857238960445   24.72746492905872
C        -3.29652665704577    5.43806975229475   25.27579397110113
H        -3.54024068069387    4.58710975203352   24.64444097190012
H        -4.15791844240036    6.10191491518694   25.30348236007656
H        -3.10971390149236    5.07614781294249   26.28387701473822
C         1.26311179050708    1.57115451593917   18.74435321878939
C         1.18280612909196    0.06815557751499   20.65997950756935
H         0.98510545829791   -1.00258195801034   20.74349134690521
H         0.28478021758756    0.61340467425123   20.96189545875253
C         2.34177084536047    0.45451949935524   21.58301738879946
H         3.24390663791948   -0.07981667759342   21.27647243507881
H         2.53087695777368    1.52351908581650   21.48109565120374
C         2.02234278425274    0.13251413324277   23.03982659653032
H         1.82944029248408   -0.93810111897615   23.14268173417040
H         1.11469239671218    0.66447609030896   23.33071189619411
C         3.16352181218650    0.53446726887772   23.96550426678779
H         4.07629954427525    0.00513424225639   23.70076152076829
H         2.91846660607353    0.30037063451174   24.99861674297243
H         3.35301388165985    1.60249034259915   23.89040973688209
C         2.00546444593967   -0.72118333085310   18.47456995096029
H         2.68652683082209   -1.30257060600262   19.10193107554515
H         2.56496817169462   -0.28648607703409   17.64628479288081
C         0.89891421354715   -1.62325441486543   17.92392953105189
H         0.29637451659475   -2.01579242561029   18.74655997480547
H         0.24604892376537   -1.02472769321815   17.28772953248560
C         1.47593389910824   -2.78347423987211   17.11784186494975
H         2.09513705035417   -2.38580193072023   16.31218787734195
H         2.11561729300651   -3.39073637058368   17.76285587516998
C         0.37625199430335   -3.65504358631254   16.52487205413189
H        -0.24998358831305   -3.06913719700133   15.85647805237629
H        -0.25256387632650   -4.06816304014733   17.31075811531687
H         0.80499764754984   -4.47863290561288   15.95934621645260
C         1.39409876256053    2.84132768386235   16.79297626670582
C         1.87855174976123    2.87187845822246   15.38347163872329
C         2.00434339530196    1.76374010009933   14.54681608759164
C         2.45538634165126    1.90537718948423   13.24206714636831
H         2.54235151791955    1.03772590560904   12.60777004912908
C         2.78128401698476    3.16299812808773   12.76388040910349
C         2.65004143399096    4.28519141779798   13.56950364754668
H         2.89414148822490    5.26279705092976   13.18618054719735
C         2.19946202678762    4.12684311004044   14.86255088469664
H         2.08041037091423    4.98544005674083   15.50613534898938

