35
CSD_code = BOFVOK | q = 0 | S = 0 | Stoichiometry = C14H12F6N2Ni | MND = 4
Ni       -0.01632580033674    5.05767931612389    6.44707750565852
F         3.15223652312218    3.42099463738371    5.18869994348204
F         2.22487565208528    2.32721000941228    6.78838126669032
F         2.40863379621470    4.47194336418645    6.91627054352603
N         0.91631034338806    6.57630272892393    5.48620434717091
C         0.76842600000195    3.61984537562268    5.40658371199534
C         2.11054410913222    3.44374126326063    6.05689241517599
C         1.96577652141449    6.53383661872350    4.67386984923010
C         2.73172361215371    7.64365030329203    4.35410899520007
C         2.40165410876995    8.86515173543526    4.91483145914763
C         1.30349152920336    8.92483304291638    5.75270692181444
C         0.57451723845883    7.76560589172583    6.00926329837351
H         0.90437727837703    4.00160656809243    4.38705016787754
H         2.98456596570290    9.74972729360377    4.70799888458482
H         0.30224282446506    2.63609297646333    5.31909295585857
H         1.03023475091778    9.85590667064826    6.22216415388846
H         3.57324750881947    7.54110844016019    3.68843537045401
H         2.22822622947551    5.57879767312687    4.24345014857828
N        -0.94866421045240    6.57673844663924    7.40768454155944
C        -1.99856963637421    6.53471495496432    8.21948771349647
C        -2.76410313793786    7.64488814710242    8.53897836603345
C        -2.43306870782320    8.86629834674133    7.97859242741087
C        -1.33447164160118    8.92551187020082    7.14126921217609
C        -0.60604529582214    7.76589737623154    6.88487708787258
H        -3.01551869782664    9.75118753604929    8.18536082098333
H        -1.06043592051423    9.85651242133523    6.67213211425972
H        -3.60613905397057    7.54273526406456    9.20407487789976
H        -2.26199452846027    5.57962742952258    8.64925393593428
F        -3.18399293293882    3.41142539371509    7.70614466142228
F        -2.25339852684411    2.33041094227855    6.09961060066858
F        -2.44514090797484    4.47511987871101    5.98421167537378
C        -0.80112016391852    3.62021846372714    7.48798431256339
C        -2.14279784320348    3.44298277047019    6.83744938246132
H        -0.93766823947692    4.00341377488482    8.50691266405345
H        -0.33472874622140    2.63668307423388    7.57699366712895

