45
CSD_code = BOFWOK | q = 0 | S = 0 | Stoichiometry = C16H18N4O6Zn | MND = 4
Zn        3.55023232817491   -0.48778864717742   10.83072783613818
N         9.11100138134730    3.35338850628488    8.76366834538053
N         5.03600617104003    0.99085804535524   10.45572002434537
O        10.24678651984937    4.13144372103482    8.70254038321591
H        10.53651001827986    4.08059936420313    7.77964912899574
O         2.08153799192219   -1.84193128049473   10.43714921700361
O         3.06289364826821   -0.73905661604768    8.83602839280108
C         8.55847585377569    3.27185651438825    9.90284168865649
H         8.95828212750093    3.78599647451605   10.77772047335311
C         7.35332709922879    2.48208528723256   10.07813754444506
C         6.72621884596021    2.42182409913955   11.32379409329186
H         7.13130753777665    2.95563115212887   12.17006217698731
C         5.57647506806396    1.66667231604081   11.46099195061266
H         5.06641460406799    1.58663721122739   12.40996286344951
C         5.62649232841716    1.03494297529623    9.26674941344106
H         5.14410793471452    0.46017821902236    8.49047201880630
C         6.77665881023841    1.76249113889615    9.02899213510980
H         7.23601062645824    1.78140052938608    8.05458639560116
C         2.27004832061965   -1.62864309911287    9.22112494004819
C         1.52199442838639   -2.45353748195784    8.19648865305875
H         0.55884645404692   -2.75537527731990    8.59654421569349
H         2.10888520793691   -3.34542974177133    7.98783934678550
H         1.40198037537377   -1.88822929133840    7.27715082175184
N        -2.01055777212839    3.35348522004167   12.89781037180567
N         2.06419096951841    0.99056478870526   11.20569726570242
O        -3.14616555082355    4.13179661174279   12.95898551212060
H        -3.43593356778305    4.08091811587800   13.88186078628575
O         5.01925254553255   -1.84161652553235   11.22431690990061
O         4.03751029814138   -0.73903574369574   12.82540085627408
C        -1.45801240756087    3.27195504684791   11.75864589253451
H        -1.85769124169765    3.78626280165013   10.88380706487959
C        -0.25295061048573    2.48205397170337   11.58332970536421
C         0.37412803331642    2.42172716431901   10.33766133836209
H        -0.03091200119755    2.95558846855353    9.49140463841592
C         1.52377539504187    1.66643364578187   10.20043357490637
H         2.03385926503787    1.58640647707886    9.25147378765864
C         1.47370339675288    1.03466309803823   12.39466533481352
H         1.95605455727124    0.45986181993006   13.17093637051333
C         0.32361708260529    1.76233194587970   12.63244358840690
H        -0.13573999693689    1.78125369831990   13.60684662666746
C         4.83043904819080   -1.62856328376062   12.44033445692837
C         5.57850602678786   -2.45339591184883   13.46500872890582
H         6.54163845134515   -2.75530762892960   13.06497106002135
H         4.99155813061686   -3.34523831485008   13.67369296099224
H         5.69853626698411   -1.88805958480441   14.38433110956405

