85
CSD_code = BOFWEB | q = 0 | S = 0 | Stoichiometry = C40H32N2NiO4P2S4 | MND = 4
Ni       -0.72061995495941    6.57670393363285    9.40537430899768
S        -0.15738711831447    5.53710873435861    7.41137124949579
S        -1.65610884443683    2.78299568828453   10.00660076095897
S        -2.78729848772876    7.35755919467167    8.69723081909864
S        -0.01197702911824   10.29767282431763    8.19685758164089
P        -1.32160624950491    7.24523732495548   11.36077041577951
P         1.10096314789462    5.79860270530122   10.29376233054643
O        -3.07234075106064    2.56263241294601    9.95046605997538
O        -1.03924681602094    2.61763925900897   11.29742534271442
O         0.80171908682968   10.21672803327267    7.02064532433185
O         0.59098033329890   10.91377576186976    9.34873299076454
N        -1.25357932050101    4.27312843665357    9.38888055890482
N        -0.63141113185741    8.79374527028757    8.59227230166548
C         0.02057685457221    6.79051039979710   12.56681402853734
H         0.77219510571748    7.58515707411901   12.58488533927312
H        -0.40083515337985    6.67454385111840   13.56864381412983
C         0.65076814548513    5.49562854614307   12.06225843418566
H        -0.07744602666924    4.67702915537447   12.08760416166472
H         1.53559795456134    5.21774473579541   12.64262874126944
C        -0.67250337514498    4.15186922416645    8.22196361320472
C        -0.41755373034245    2.78767385111675    7.76433645423441
C         0.23047422244397    2.37915849858046    6.60875842547959
H         0.56103500392968    3.11034111698376    5.88763246443779
C         0.43623715145702    1.02164552819328    6.42009367275408
H         0.93855522719986    0.67890109704365    5.52796209626075
C         0.00870918244577    0.09523370021231    7.36098027842103
H         0.18259131970892   -0.95682089482624    7.19255976630669
C        -0.64401013074505    0.50546080115988    8.51896186179172
H        -0.98390057291595   -0.20422805732007    9.25657985868793
C        -0.83992293569548    1.85192775439199    8.70017526038483
C        -1.92229817054366    8.77526185196694    8.40186143204826
C        -2.54951852315499   10.02646157461545    7.98174782097618
C        -3.89644588382382   10.28432747909087    7.77514987337089
H        -4.62253654485290    9.49412209101919    7.88789693370297
C        -4.26727346674041   11.57338990750963    7.42643243232586
H        -5.30970274072414   11.80080980026108    7.26009849538396
C        -3.31956913462174   12.57868194403844    7.28882315544852
H        -3.63395648403872   13.57539290954479    7.01820735766391
C        -1.96883169312859   12.31722395563904    7.49364734733890
H        -1.22193118308686   13.08790741094314    7.38804636255691
C        -1.61080363870437   11.03719020530535    7.83776407780517
C        -2.76154557836050    6.45216382491859   12.13698517695300
C        -3.41716720872979    5.40410346666021   11.50742564687567
H        -3.10650932964971    5.08671859435278   10.52316987718964
C        -4.46465763652573    4.76040364328588   12.14376475360678
H        -4.94734232686971    3.93165814234496   11.65000444737237
C        -4.86774020964258    5.17376260960485   13.40152521304218
H        -5.68451818065845    4.67396047438785   13.90122345807816
C        -4.22692314281311    6.23530712877682   14.02498044628553
H        -4.54910894674483    6.56335687651686   15.00282419183744
C        -3.17206104800671    6.87234092783260   13.40079717138777
H        -2.67116960387635    7.70250030141989   13.88213782773033
C        -1.65381854481270    9.01435665627059   11.57903858678757
C        -2.95203961785854    9.46457675989955   11.33655587710781
H        -3.73668043885560    8.74516613712364   11.14333950546529
C        -3.22897216898095   10.81762275394373   11.33254534376668
H        -4.23418888738272   11.15949671501990   11.13330929453018
C        -2.21604562953576   11.73309508028389   11.57268887977290
H        -2.43214739762711   12.79107056443195   11.55919111403655
C        -0.92815073697543   11.29118395696964   11.82145560070445
H        -0.13452489527140   12.00014799860933   11.99539062363734
C        -0.64130186488470    9.93802619417964   11.81074599844508
H         0.37682223258648    9.61273718256102   11.95916894995982
C         1.93792140529767    4.29539116501622    9.71665727575360
C         2.69209805356890    4.40910071961954    8.54855142719810
H         2.78887178702526    5.37765613520401    8.07512666187532
C         3.29569416076354    3.29531074044158    7.99903992564580
H         3.87471795926007    3.38833030762001    7.09245349548394
C         3.15011456233920    2.05850269274499    8.60872926541310
H         3.61330723631023    1.18463165442677    8.17507666403435
C         2.40941985479588    1.94420519626140    9.77232730471859
H         2.29606897796169    0.98210863766826   10.24958129916390
C         1.79900196440822    3.05614069525080   10.32945323559656
H         1.19763511783715    2.94739757059984   11.21762614484727
C         2.50008349812237    6.94604398963771   10.47751741912076
C         2.33228483581528    8.27298608698350   10.10623191992623
H         1.39501995276616    8.59371615184677    9.67227672975726
C         3.36355799949355    9.17996563501512   10.27891876088847
H         3.20870039501272   10.20723086325212    9.98703483907840
C         4.56737896101085    8.75735338279652   10.81668552903395
H         5.37801183748368    9.45856194954397   10.95019724174654
C         4.74123459738823    7.42889304037365   11.17995237018508
H         5.68413524997975    7.10119356169618   11.59352350573410
C         3.71266692135058    6.52078981827515   11.01371179636519
H         3.84677818750389    5.48315892965403   11.28925559479423

