55
CSD_code = BOFXOK | q = 0 | S = 0 | Stoichiometry = C24H21ClN6O2Pd | MND = 4
Pd        3.92685860407852    8.27540475566375    9.65474604231933
Cl        1.88757181288173    7.91394615693934   10.55616266034978
O         6.44362857611671    9.40815330422391    6.67018741990056
O         4.74012798773586    5.60968303316362    5.48013083553693
N         3.64861753775131   10.21939119574594    9.60595988281860
N         4.36446630328912   10.02137975750413    7.39406799141078
N         5.69102968102798    8.64650311803712    8.71998689192845
N         4.25537365020561    6.28927045291721    9.56889281098722
N         3.79573074271210    6.54065557827664    7.34559469009401
N         3.66321946889454    7.63313326868040    5.36021318045796
C         3.15122683163657   10.92856957275610   10.61788646424901
C         2.77851324563098   12.25021134116173   10.47881807605790
C         2.91714420156164   12.85177162619003    9.23246730851564
C         3.45186611106560   12.12568015602102    8.19041682108592
C         3.82929440551723   10.79378169650342    8.40657085480361
C         5.64220273972756    9.29041864506592    7.57344028212480
C         6.78616822034590    7.92523694530623    9.17904833691696
C         7.75914067129636    7.35705474139702    8.35864616945998
C         8.77224163698791    6.60403018176425    8.92238650423875
C         8.83476170130498    6.41002410640862   10.29214568329142
C         7.87675458416446    6.98464451749504   11.11380953085222
C         6.85977268830542    7.73825286704097   10.56489577770774
C         4.65023744510461    5.58360685671685   10.62575423796519
C         5.18065648843974    4.31567253307482   10.50348142754793
C         5.30941033594432    3.76957122552462    9.23098808538011
C         4.86165243550452    4.47840380088214    8.13539638985278
C         4.32022418390400    5.74766255648501    8.34358219864787
C         4.13302719881034    6.51941813494488    5.98871388013408
C         3.87745377419915    8.03927058560106    4.03732716479617
C         4.56482749794035    7.26867551955025    3.10686721427534
C         4.73465004134983    7.74292183421063    1.81867113543169
C         4.22653578020260    8.97452739793150    1.44305374616082
C         3.54069069480511    9.74169122870492    2.36970401349918
C         3.36631595517059    9.27888395988922    3.65935165400355
H         3.03510377954208   10.40102538300521   11.55885686685044
H         2.37609274089975   12.79191549056274   11.31815140547550
H         4.42690776388949   10.51951025924173    6.50914530058140
H         2.61903432551067   13.87793953876673    9.08211982133412
H         3.58650983015565   12.56471340704705    7.21380491762471
H         3.28930201945166    7.35936668447121    7.72895693364882
H         3.19863140762006    8.32966739868507    5.93040820114764
H         7.70961187278921    7.50894723054085    7.29236516264052
H         9.51904976823477    6.15927903673198    8.28133448476890
H         9.62856125736246    5.81676577176720   10.72062690256323
H         7.92733347348421    6.84435248057723   12.18397286941291
H         6.09847187634045    8.21395256478052   11.19805939405261
H         4.52374105422879    6.06160173186615   11.59264857177721
H         5.49577338544307    3.77212762989109   11.37854347657576
H         5.74163935559863    2.79003476273502    9.09851928784899
H         4.93056717383238    4.09395753840246    7.13214174385097
H         4.96436800713535    6.31214920036004    3.39709874920166
H         5.27145802039552    7.14009673424295    1.10160290746258
H         4.36347914244259    9.33661087491912    0.43551324484692
H         3.14007792006270   10.70439273725484    2.08801450959099
H         2.82539259197722    9.87739089241058    4.38084988594905

