83
CSD_code = BOFYEC | q = 0 | S = 0 | Stoichiometry = C36H36N6O4Zn | MND = 4
Zn        1.40794239899084    1.10756008362871    7.59490310074210
N         3.54073551007035    3.68743367515980    2.92637951025591
H         2.84714310933110    3.93064871571222    3.63159928118010
N         1.34100111527891   -1.69780189471570   12.47336993047660
H         0.70073831207136   -1.57189182092962   11.69105864609011
N         0.82948879590884    2.89626225543833    8.23467771583370
N         1.11438876757596    3.94415672287082    7.44866742673204
H         1.55307123814252    3.76142597084426    6.51404832360765
N        -0.17275781753674    0.07266406527310    6.97418180531856
N        -0.68996764814807   -0.83824413260324    7.80911006847117
H        -0.25857754277349   -0.92636199117995    8.75259464719185
O         2.53433510970152    1.24260231196834    6.13159617706442
O         2.16585381478333    3.18384491836947    5.13350013817596
O         2.33730355272372    0.21416529075391    8.92281753242503
O         0.73209675209834   -0.79101659943685   10.06269957360834
C         2.67189404748193    2.03775309742102    5.15325212641382
C         3.45221934556309    1.53252056887284    3.99369706821734
C         3.85826971123410    2.35724336868876    2.92033635591672
C         4.51761480004380    1.75969491174168    1.83713788322147
H         4.76207776750379    2.36277079657847    0.97652259160871
C         4.81389758412987    0.41529584931232    1.83818489112309
H         5.31930866015658   -0.01818379497777    0.98707432543288
C         4.45641410978798   -0.38573052637195    2.91574188635524
H         4.69787763621555   -1.43762439566695    2.91757642576768
C         3.77045902763914    0.17479305935801    3.97065639320428
H         3.45775166167870   -0.42844395192472    4.80956282502524
C         4.12537478017803    4.73264722883339    2.23549766072119
C         5.44669776350550    4.71072894224668    1.78579236278809
H         6.06973030927690    3.85379008372316    1.99035287906991
C         5.97224593237379    5.79940164714823    1.11647406754678
H         6.99692976593107    5.76653004755157    0.77514595087235
C         5.20583486896022    6.93083788741215    0.89324428729869
H         5.62244122523074    7.77603659033610    0.36662854323048
C         3.90460061892761    6.97414648547637    1.36780942253285
H         3.30300460782177    7.85864680232604    1.21528487200064
C         3.36946256243590    5.89100944301284    2.03434553013824
H         2.35567245436063    5.92483038112388    2.40772908943914
C         1.93490129487037   -0.46933089852335    9.91304310757328
C         2.96568366111968   -0.88351241296977   10.89672985226888
C         2.64922809960493   -1.48335544912356   12.13702646270244
C         3.70471844310609   -1.90666581612710   12.95643622996920
H         3.47909216151568   -2.43861246607032   13.86760915404007
C         5.01599317006079   -1.69579606912532   12.59358436358401
H         5.80855624374654   -2.03740093718607   13.24398117302235
C         5.32486495112424   -1.06248331782878   11.39597782679881
H         6.35372023857481   -0.89260997929524   11.11807502691646
C         4.30278195907141   -0.67735902398376   10.55686093105060
H         4.51232664121640   -0.21098818122874    9.60640721497418
C         0.77500391462206   -1.92382670737443   13.71447906957498
C         1.33718488697652   -1.46935098560897   14.90872397432987
H         2.25036190056042   -0.89468892511415   14.88849857480752
C         0.70693312222839   -1.71782935674032   16.11330509035045
H         1.15543768134219   -1.35941359073324   17.02879807412030
C        -0.49371235885146   -2.40624558631276   16.15573733008294
H        -0.97769301735165   -2.60036552555395   17.10095981116121
C        -1.07675142481368   -2.82871837702636   14.97161545661962
H        -2.02239077074780   -3.35126056847094   14.99080356487327
C        -0.45392359734109   -2.58802605160511   13.76415321880679
H        -0.90954694481907   -2.91434837172533   12.83987885173280
C        -0.20763970202562    2.50196851121336   10.44359260300998
H        -0.01166017226932    1.45927407706711   10.21090793251218
H        -1.27628369091792    2.63453373288921   10.60605924813501
H         0.30785576507312    2.75792991599669   11.36795939926984
C         0.25683445653530    3.37635646080450    9.33826009194751
C         0.17786813890234    4.76794191554832    9.24226287155659
H        -0.23012217096070    5.44107558616973    9.96782112810337
C         0.73775303812063    5.09358282966023    8.01652584815282
C         0.93792879734232    6.40644399404334    7.35474242800233
H         1.39107806076413    6.26418631420059    6.37735894053413
H         1.58767964416575    7.03911215789146    7.95719442899758
H        -0.01409308319486    6.92090633843388    7.23568145272401
C        -0.54752507041876    0.85009074916325    4.66233816427766
H        -0.18863125319316    1.82345382433901    4.98817049681534
H        -1.43074674250930    0.97703769296727    4.04141075338867
H         0.23628139184972    0.38985362343298    4.06009806119738
C        -0.85658457997833   -0.00736733903132    5.83326637409083
C        -1.83374075454846   -0.99783929285629    5.95614488117306
H        -2.54298292637085   -1.29865439040850    5.21293302573882
C        -1.69364315146538   -1.51015161053054    7.23715552359782
C        -2.43973105085851   -2.57848101931090    7.94680134370013
H        -2.06680627317269   -2.68045948486145    8.96238193873221
H        -2.32263011824842   -3.52956838408936    7.42981178363897
H        -3.50210351710856   -2.34317969838392    7.97898560625953

