91
CSD_code = BOFYOM | q = 0 | S = 0 | Stoichiometry = C34H40CdCl2N8O6 | MND = 6
Cd        3.43403418541103    4.68966605590487   -0.00002998705023
Cl        9.38115069892330    4.84009617119722    6.09356356866423
N         2.29305745411295    3.43448998005259    1.55065431274308
N         3.00732323715367    2.83040581765293    2.51199076154096
H         4.02466407886329    2.96966999821054    2.58304472872251
N         4.63515337924329    2.86405139076599   -0.71306018824084
N         5.41921872180640    2.24495129223165    0.18206369374376
H         5.51735878173166    2.60677187630078    1.14062302929938
O         5.05019055909182    5.26041048500982    1.52894452131278
O         5.67912151149669    3.44916047647514    2.63473050941464
O         6.10952161322761    7.53752258543014    2.05581916944206
H         5.52653787729015    6.85811920459689    1.62370956069422
C         5.75384343452939    4.67865485063771    2.40138459625523
C         6.71851324186462    5.50287608081423    3.18916031137146
C         6.84061384703489    6.88602408810725    2.97076025593212
C         7.75845948055018    7.61043060797276    3.73563171391945
H         7.84378681008057    8.67117493095811    3.55988451112735
C         8.53446646765087    6.98792518287049    4.68898539108049
H         9.24027609817401    7.55617739349147    5.27423876761911
C         8.40413485839231    5.62035327671256    4.89460169477237
C         7.50611855957456    4.88200468729642    4.15412503407852
H         7.39570138558446    3.81920936774382    4.30480363838128
C        -0.10590035375059    3.62592533449604    0.95055607855715
H         0.21442696576257    4.47191967114648    0.34950322528975
H        -0.94411082880971    3.92282773710644    1.57773545675926
H        -0.44278726020003    2.83075595731442    0.28581589239529
C         1.01868471398642    3.14400070008048    1.79415584888186
C         0.92656670702099    2.33815079722117    2.93800214547006
H         0.03345141519021    1.94552093298969    3.37874124586589
C         2.22497529722813    2.16355282593688    3.37548360903526
C         2.78588875741050    1.41588923546510    4.52877947452879
H         3.83385044014737    1.67151770907116    4.66416484234487
H         2.70659882204442    0.34235245343699    4.36099246326179
H         2.23936172584166    1.65428655121524    5.43871078926433
C         4.10965671477996    2.60077564535014   -3.12268193800602
H         3.27681368937186    1.92235617634542   -3.30657696509081
H         4.79477766368923    2.53451472287505   -3.96551719082624
H         3.72545657158165    3.61378092064445   -3.04683375917087
C         4.80710455921957    2.22397407061058   -1.86563653614681
C         5.72326862145983    1.17637163528518   -1.69382915364270
H         6.06029794838025    0.48691568741709   -2.44023462009601
C         6.09996159088691    1.22578074185547   -0.36592545181826
C         7.03639878289825    0.38974137385048    0.42643090017851
H         7.23389244300185    0.85973813693690    1.38661386041342
H         7.97501272323437    0.25946869728587   -0.10778125385187
H         6.60989587669756   -0.59732588286118    0.60173102438475
Cl       -2.51296941400858    4.54031045180996   -6.09381654483225
N         4.57513013156055    5.94475798452798   -1.55067192838776
N         3.86093676044759    6.54898782797107   -2.51197305160133
H         2.84357295391880    6.40986385443954   -2.58302834369643
N         2.23284283523653    6.51518451608417    0.71317887585072
N         1.44890286777446    7.13448133639905   -0.18191911207598
H         1.35084116754756    6.77282864356943   -1.14054452610234
O         1.81780692123536    4.11920217139702   -1.52909395339430
O         1.18907460133515    5.93059947012598   -2.63474669511832
O         0.75820205545747    1.84225634932184   -2.05612643931924
H         1.34125931264315    2.52156740390539   -1.62397206531289
C         1.11424409500620    4.70109153303381   -2.40151913680280
C         0.14950209037371    3.87703325981330   -3.18937648241636
C         0.02721728482394    2.49389192672291   -2.97105567873699
C        -0.89068615110910    1.76964178874926   -3.73600344893067
H        -0.97614286117989    0.70889307329938   -3.56032801043297
C        -1.66658028379263    2.39229682800233   -4.68934998077783
H        -2.37244109206668    1.82416572163010   -5.27466261003261
C        -1.53607742991946    3.75986226920249   -4.89487897430518
C        -0.63799614879181    4.49805744984960   -4.15433054499505
H        -0.52744769961046    5.56085224708889   -4.30494075602609
C         6.97407451615786    5.75299725207019   -0.95060607931437
H         6.65378511733803    4.90677435935109   -0.34986549295169
H         7.81238216629001    5.45640351524715   -1.57778797830499
H         7.31079923299145    6.54797343509907   -0.28556012147365
C         5.84954003987955    6.23509400363315   -1.79417136857187
C         5.94175143731621    7.04099864581615   -2.93797066201816
H         6.83491400001407    7.43353676243906   -3.37869608453827
C         4.64336079971826    7.21578840350655   -3.37543511828520
C         4.08253688827676    7.96356295130753   -4.52870324625728
H         3.03441402071242    7.70845191125351   -4.66378505311538
H         4.16243198776198    9.03708133228473   -4.36111729068910
H         4.62869918150762    7.72473581731213   -5.43873998241239
C         2.75807730046889    6.77802284587113    3.12291460467740
H         3.59058371347565    7.45672571953589    3.30731766955088
H         2.07270468471151    6.84362652652098    3.96560767930661
H         3.14271964412533    5.76520661676445    3.04672407481793
C         2.06079093646764    7.15506628237165    1.86584981145461
C         1.14467595528818    8.20272953217945    1.69413193672257
H         0.80758533783929    8.89205991316560    2.44062651573774
C         0.76812959139216    8.15357368224612    0.36618089856161
C        -0.16816841355981    8.98980877624971   -0.42613403151870
H        -0.36609550310419    8.51966032856682   -1.38616672532096
H        -1.10658954883014    9.12059572016324    0.10830244136534
H         0.25871504801699    9.97666192859207   -0.60178657277951

