68
CSD_code = BOGHIO | q = 0 | S = 0 | Stoichiometry = C24H33BMoN6O3 | MND = 7
Mo        1.97605600088236    0.65306352097035    4.23156581489263
O         1.99216244101755   -0.76285894158587    6.97019868779480
O        -0.06896110162712   -1.35273617309593    3.09142460578766
O         0.29549059564112    2.10105676312625    4.90405417462578
C         2.06543723515788   -0.26946796304755    5.92378108484709
C         0.76321179845581   -0.64129248947895    3.47249564755501
C         0.20040960851528    0.90430758900711    5.13722293108190
C        -0.93814423991114    0.24691356118942    5.84316879393108
C        -1.06675387715379    0.83496335647495    7.25740333689718
C        -2.26187554160359    0.22330269144154    7.98012504574758
C        -3.54720385703223    0.46426089465254    7.19478093485824
C        -3.42493419829039   -0.11588725406110    5.78930465466096
C        -2.23524226683498    0.49456855082344    5.05664754980181
N         3.65390753693740   -0.38089086708918    3.49386735935122
N         4.62329718246188    0.30785179619507    2.86642542839785
C         5.59689017894678   -0.53273483250150    2.46305276140088
C         5.23125659530739   -1.80752418407108    2.85088347212745
C         4.00079168596128   -1.66687392063106    3.49726633610462
C         6.82028294092895   -0.10650221444154    1.73445097142722
C         3.16813505398346   -2.73437601006522    4.10782423240505
N         2.06673898216201    1.77082736379772    2.40998199765199
N         3.25645380686449    2.15580796891587    1.92386473388266
C         3.08868433997680    2.84605961864048    0.77901937270637
C         1.73056994314473    2.90351976434128    0.52892449542189
C         1.12582457547796    2.21306838201149    1.58307776876913
C         4.20441340783945    3.41438474255972   -0.02165760468591
C        -0.32640771156086    1.96852530094742    1.79410046047179
N         3.37537580031054    2.13961380228892    4.87351353917182
N         4.41059348145222    2.46277618261246    4.08366216382838
C         5.17922976416657    3.39279401053082    4.68331250611222
C         4.60322298942871    3.67502675101717    5.90759154499197
C         3.46849488672193    2.86250198022498    5.98406047537117
C         6.41290997700914    3.96553306147797    4.08421006902590
C         2.49214688984616    2.76867357615978    7.10266944200291
B         4.54346232007539    1.83347214784617    2.69198548451263
H         5.49174360371011    2.24584632430528    2.12674160491046
H        -0.75456215051666   -0.83112623095824    5.91229461643850
H        -1.19451528882812    1.91769711537004    7.17831175788651
H        -0.15096414985712    0.63695337382525    7.81754372455349
H        -2.34600091334625    0.65879890704147    8.97780457023852
H        -2.10146221343349   -0.85074016949595    8.09498530000246
H        -3.73584640450611    1.53832922441577    7.12861599749450
H        -4.39195970334481    0.00739426229274    7.71399183791833
H        -3.29162257532567   -1.19788923313594    5.85252748670393
H        -4.33889806283350    0.07734013612026    5.22412894584406
H        -2.14547076073555    0.05605133511722    4.06103340435677
H        -2.37993717872392    1.57241520789323    4.94625060110986
H         5.77780929203340   -2.71415471271450    2.68907290962127
H         6.56140703529960    0.37741945073193    0.79443069889901
H         7.43538569593617   -0.97700813055371    1.52383157255586
H         7.39917033085447    0.59795559340755    2.32901579373802
H         3.66189011344927   -3.69590253285421    3.99489858445847
H         2.19154938459298   -2.77617564624029    3.62766798939974
H         3.01169760019273   -2.53515252180122    5.16698336135594
H         1.24332250279654    3.37845756540409   -0.29840597884788
H         4.89280252817893    2.63121857929190   -0.33481728728470
H         4.76515775015200    4.14432232674021    0.56020548877241
H         3.80280041658461    3.90382103321455   -0.90487613131441
H        -0.89892784957752    2.46715035863270    1.01572427010129
H        -0.64304048059467    2.35158677347495    2.76429924740500
H        -0.54206578093515    0.90084304821667    1.75593519546386
H         4.95229964118379    4.37103227192815    6.64323301115903
H         6.18786015064200    4.47888551436320    3.15065223283437
H         7.13811826811367    3.18160111748187    3.87233214906854
H         6.85519171652540    4.67599222243915    4.77743606586477
H         1.47868641544882    2.94678274019773    6.74306948975655
H         2.73147926660224    3.50999139412007    7.86125239138582
H         2.52947457559916    1.77943477452794    7.55876882520880

