85
CSD_code = BOGQIX | q = -1 | S = 0 | Stoichiometry = C28H38B18Co(1-) | MND = 10
C         1.94692789184384    0.51948088817623    4.67625550777586
B         1.90605074247150   -0.54501984696694    3.38524684579049
H         1.59437611733396   -0.21253808957881    2.29973852182157
Co        3.85307112761010    0.14864060650878    3.61182043311610
B         3.21050800538328   -0.00014927726412    5.59243318229220
H         3.86835482667794    0.71950300554696    6.24778651402233
B         1.53095645437233   -0.25995411745036    6.15798385207193
H         1.09205510085781    0.41846071595076    7.01792339802524
B         0.63465985521497   -0.57071360890443    4.67757186144543
H        -0.44287108509404   -0.12409344779858    4.49705082690386
C         2.84257896716527   -1.90723240331114    3.62355399957060
B         3.77318073761895   -1.55016114369207    4.90852074047258
H         4.87659400074132   -1.94690701244825    5.00194125630248
B         2.73612221229764   -1.53764205788332    6.34244819136451
H         3.15229428367089   -1.83931482595764    7.40705630789066
B         1.05719038484020   -1.89780587095078    5.78338128084033
H         0.24687528347969   -2.47104449298221    6.42489869930525
B         1.19113562793666   -2.08528263201847    4.02624356024611
H         0.53376174112488   -2.79358629677848    3.34886155869122
B         2.43342745827502   -2.72914442659866    5.09218424357784
H         2.66601020997449   -3.88540604781609    5.14069257469450
C         1.51046045159590    1.93081891759176    4.58162557801002
C         0.66167459945798    2.36968181938381    3.56134688492526
H         0.34151073371753    1.67181030967370    2.80327842985169
C         0.21870470171576    3.67614164851746    3.50117915726783
H        -0.43503180277581    3.98422744330694    2.69569435572424
C         0.60359610999367    4.59258500101792    4.46511739960892
H         0.25662158850625    5.61570746353859    4.41851883701483
C         1.43180426111414    4.17561866291851    5.49271474290798
H         1.73313541468888    4.87757659609710    6.25880344367850
C         1.87301591615981    2.86793553848387    5.55084903742426
H         2.50456783359964    2.56171021109074    6.36892765364174
C         3.24939155533101   -2.82178452974966    2.53232344040999
C         4.36057963109439   -3.65939687354388    2.67028126943104
H         4.97860229205907   -3.57507785012123    3.55013297684990
C         4.67275035511713   -4.61034378434465    1.71925382220904
H         5.54067550021567   -5.24199645182592    1.85735120112835
C         3.87026182328191   -4.77598492002018    0.60277418645149
H         4.09987793685949   -5.53725992700274   -0.13047022658781
C         2.76806851517122   -3.95494755653065    0.44402221994220
H         2.12808247521626   -4.07133954986125   -0.41987525771990
C         2.47551406056844   -2.98295264156820    1.38124218444961
H         1.61847561749231   -2.34797303457235    1.22219341463963
C         5.98741444804929    0.69791471354749    3.82001717851261
B         5.55056518711845   -0.15955977717974    2.45022979476515
H         5.65348914964619   -1.33011314607994    2.37537810546959
B         4.90127226164851    1.93134737061452    3.89210968391589
H         4.54232279259611    2.41416831760779    4.90116533653318
B         6.59831139020862    2.26223309603701    3.42454168486406
H         7.33097899968214    2.76565663963403    4.20055415329605
B         7.06337745328511    0.83843603600569    2.50369087582568
H         8.12928674303786    0.34449782590756    2.61781417310380
C         4.48064792877152    0.66602519176086    1.46865681402706
B         3.94510818389206    1.89822235754023    2.38515013527903
H         2.84287077113551    2.29969960380975    2.29885182756445
B         5.27202188807052    3.05439778736326    2.56845552043348
H         5.06839757623947    4.21252834977479    2.68997742549497
B         6.69202227756490    2.37334598904080    1.68508323229243
H         7.52106481046255    3.02303981601806    1.14902502427909
B         6.12692847380040    0.82404417229957    1.03732785227822
H         6.48321603347299    0.31861311155447    0.03227947451623
B         5.07419147138078    2.23317312973830    1.03184877404047
H         4.66897868522150    2.69676212957571    0.02471109029139
C         6.61881851594131    0.07366954203452    5.00449107325546
C         6.64954934604226    0.72720100675917    6.23774745324213
H         6.18241325803207    1.69391077327153    6.33288335286421
C         7.27428930599596    0.16932149803959    7.33614939191697
H         7.27661969636900    0.70038251521219    8.27866120401904
C         7.90019987007669   -1.06122437220254    7.23834340521468
H         8.39027595707521   -1.49901060125191    8.09708431403061
C         7.89664839376278   -1.71984883237145    6.02047975360926
H         8.38890136408420   -2.67887817698449    5.92562181484459
C         7.27023803080704   -1.16050205212648    4.92435135899289
H         7.28715026338315   -1.68933012258110    3.98402043728116
C         3.68521287145345    0.01980944060443    0.39976763085836
C         4.13930109373357   -1.11972369879862   -0.26759051444866
H         5.03520414188267   -1.61470123538266    0.07215523928002
C         3.47845109811030   -1.62164622857911   -1.37214665942843
H         3.87741819458177   -2.48699753479073   -1.88359404370204
C         2.31372573860229   -1.02798334767554   -1.82494587278688
H         1.79541704284341   -1.42064895540788   -2.68930783427823
C         1.82422145734498    0.08140311752429   -1.15585683757435
H         0.91137114468709    0.55518141636368   -1.49304259715668
C         2.50471181923700    0.60144465922236   -0.07292702999565
H         2.12509535668952    1.48959236428970    0.40690869570135

