112
CSD_code = BOGSUN | q = 0 | S = 0 | Stoichiometry = C51H52FeO4Si4 | MND = 8
Fe        7.54730015302207    1.92129747462017   -0.31533495771681
H         8.54755193436624    2.03238192845383    0.68889216076907
C         7.99222565029658    0.23829071925319   -0.38958716042731
O         8.46850344246650   -0.80834950745990   -0.44817684044351
C         8.83103313246425    2.17005309192539   -1.45139617985723
O         9.73327848686431    2.31136933037145   -2.14720822783142
C         5.37311979605279    1.83032952101729    0.01378338230387
C         5.67019474564727    2.36982775961034   -1.27476534242313
C         6.39125770858079    3.58835100590967   -1.04022383316310
C         6.76998949161275    4.64496081163183   -2.02953969921655
H         5.86967418146346    5.20154086681956   -2.31490732122111
H         7.17950185841017    4.20148439703658   -2.93847319065777
C         7.78301910042576    5.59234173514379   -1.38775941238489
H         8.71948868403822    5.05448744075566   -1.22370186984204
H         7.98044776328588    6.43131062697791   -2.05710417148544
C         7.25228288712776    6.09925326705559   -0.04805325556106
H         6.25416748400353    6.51877749716139   -0.19863863451661
H         7.89369324103854    6.89434719651131    0.33490835085747
C         7.18265590619046    4.96368948166992    0.97643805093378
H         8.18182529074505    4.74494492188786    1.35787734597146
H         6.56883759945463    5.26284889413060    1.82966000970712
C         6.59935184930298    3.73268449891348    0.34737141552583
C         5.98353806021678    2.61914720161745    1.02170659523542
O         4.62550437413543    0.72968678884443    0.22857867507393
Si        3.07376294052522    0.39946908256889    0.58884348540819
C         1.85015963092249    1.04064559994428   -0.72050128695915
H         0.85175633258771    0.65680319386980   -0.53516346326951
H         2.13687408521184    0.73310810045829   -1.72069786252214
H         1.78375601328759    2.12517283687464   -0.71665126309241
C         3.07851055114675   -1.48436226384231    0.74037195526642
H         3.75220322062319   -1.80912122398529    1.52689747136320
H         3.39326273572033   -1.95576955020402   -0.18390562377600
H         2.08747015484307   -1.85329269456750    0.98057936454961
O         2.67358191500075    1.10185183523488    2.00776146014285
Si        1.47916658012599    1.22913965350129    3.12332175556104
H         2.12641412531050    1.93234711845072    4.23038977292478
C         0.03869090301517    2.24108119357366    2.40484063417072
H         0.38918965542742    3.19927038464553    2.03416021458468
H        -0.71764202871574    2.43867802569064    3.15792984368013
H        -0.44664010224701    1.72777792822438    1.57902192942856
C         0.88669732355661   -0.50569620931049    3.62170520062126
H         0.32898252998629   -0.98522075326935    2.82133344195783
H         0.24169179442646   -0.47343741175082    4.49406760400607
H         1.73328729637162   -1.14350515197280    3.85699161551194
Si        5.01679974658696    1.79593039513415   -2.93599858851732
C         4.52545319798979   -0.03126143012973   -2.91581530530943
C         3.44265810667678   -0.51998019771823   -3.64025364403791
H         2.82060850923906    0.16706865568291   -4.19636080264438
C         3.14562357802821   -1.87092170797869   -3.65686933904014
H         2.29893910293118   -2.23022650839703   -4.22427659678739
C         3.93517853806384   -2.76297950212346   -2.95126913123775
H         3.70785973329717   -3.81912133971960   -2.96756996950371
C         5.01427973830870   -2.29300610150920   -2.22104343731638
H         5.63364626605860   -2.98075887570162   -1.66376260338534
C         5.30061422372774   -0.94076838536559   -2.20491494977930
H         6.13074815626868   -0.57644641559745   -1.61887260681307
C         6.42609546545880    1.97983587068683   -4.19839902433262
C         6.42386636006447    2.96003388932064   -5.18664493368414
H         5.58554545921474    3.63878435765535   -5.25696047547278
C         7.47960598610405    3.08415030645464   -6.07191523357550
H         7.46021102250029    3.85474536811863   -6.82948981438359
C         8.56194984376874    2.22497842024141   -5.98455061832839
H         9.38872922004934    2.32261558941550   -6.67275456903032
C         8.58039864512777    1.24228194439722   -5.00918996696943
H         9.42292610997537    0.57117239604111   -4.93206149694708
C         7.52231934056592    1.12441141717895   -4.12724695943504
H         7.54557439352734    0.35763064719824   -3.36647213217154
C         3.57147297649687    2.93275961355811   -3.40147322491838
C         3.04909502685132    3.84581108809826   -2.48985377760109
H         3.47988109662175    3.90879826128604   -1.50027316634809
C         1.99335950052199    4.67279787498559   -2.82833457414537
H         1.60221756204918    5.37463956528852   -2.10523580577373
C         1.43731126627741    4.60259379593491   -4.09438812873575
H         0.61155566196624    5.24579201479114   -4.36159079703546
C         1.94803627884592    3.70599175576851   -5.01797993384187
H         1.52186751240518    3.65040066640515   -6.00951311137115
C         3.00468208691038    2.88307193800799   -4.67198095624286
H         3.40493140721309    2.19398873921625   -5.40224205511838
Si        5.85467162841623    2.38949622165313    2.88291058404872
C         7.49160432395636    2.95241935289728    3.67353877224781
C         8.62344740103876    2.14921500243456    3.56307099472578
H         8.55144629453434    1.20317968134752    3.04898424404417
C         9.83714062580619    2.54727642193174    4.09251168542844
H        10.70432023052710    1.91129230488660    3.98951666184568
C         9.94205132762199    3.76030436301549    4.75223299491549
H        10.88937163650352    4.07419312939880    5.16649677360970
C         8.82539844538922    4.56889307435176    4.87900828519145
H         8.89919499791907    5.51633281472435    5.39414778225015
C         7.61544253616484    4.16631951040078    4.34300583362009
H         6.75066263016690    4.80679275215234    4.44551628746539
C         4.46665305434646    3.53150342375617    3.48290014000058
C         3.62387503817266    4.17905084996230    2.58553363266614
H         3.75939798372080    4.01989920763112    1.52544995127930
C         2.61717904021399    5.01772885721408    3.02776855726737
H         1.97571642197369    5.51765696008597    2.31546247713082
C         2.43301365875741    5.22458741924278    4.38412860418279
H         1.64755593952834    5.87943548825634    4.73250922868634
C         3.26392691177522    4.59069786375711    5.29259741403582
H         3.12716586536314    4.75071252908836    6.35266992564718
C         4.26982082112278    3.75491607211918    4.84229951046675
H         4.92022892005023    3.26906910301678    5.55584772606373
C         5.61201358857813    0.56115578861465    3.30128352146496
C         4.81481094557834    0.13541481751081    4.35731234796805
H         4.29249533898866    0.86543770796908    4.95631182197407
C         4.67405838156205   -1.20999049488023    4.64650077927912
H         4.04844662225381   -1.52218561403742    5.47102927370086
C         5.33712082952949   -2.15711664279542    3.88436649535093
H         5.22791391262944   -3.20882415107837    4.10870219157807
C         6.14050337940392   -1.74893780853928    2.83198166038833
H         6.66247223790856   -2.48070057743864    2.23213852921749
C         6.27423931844395   -0.40283902740868    2.54742380361561
H         6.89818011409714   -0.08809715182266    1.72075709928245

