112
CSD_code = BOGTIC | q = 0 | S = 0 | Stoichiometry = C44H61ClN2OP2Ru | MND = 6
C         8.65646743600592   12.74614642941004    2.02330406711807
C         6.42291367800689   12.06102529475996    2.31059548404367
C         5.18982743385973   11.78148892254304    1.77033953516065
C         4.01235856058264   12.07935595043953    2.46749108118732
C         4.05330227377657   12.64887945340204    3.70608909356388
C         5.29329358679109   12.96198418412412    4.29952462680181
C         5.37395727959682   13.51554228818150    5.59263450233526
C         6.58906002493746   13.79172580069081    6.15734267089693
C         7.77209275552338   13.54732344202491    5.45735251416031
C         7.73541341536625   13.00730441197384    4.18876574105119
C         6.48785917696773   12.69589452106538    3.58537933984068
C         7.63164213452264   11.31051885512829    0.28603672771023
C        10.02752322158640   12.13880361625414    4.00297810432503
C         5.97988357353313    8.82450578294044    0.12599504637910
C         5.21068724009950    9.28092618517753   -1.11160704799486
C         3.77312013822941    8.76924267897688   -1.02344979783178
C         3.75254655137746    7.24616963785038   -0.92436057387247
C         4.56320051124028    6.77199146736511    0.27934207988212
C         5.99367200368030    7.29654308421608    0.19457327179907
C         8.52301288611133    8.89440671193088   -1.26885156287615
C         9.29020692895697    9.97357382750047   -2.02947271264958
C         9.88227492747932    9.37971340751762   -3.30702597139399
C        10.80457092439660    8.20872404902208   -2.98310211587441
C        10.04498648563009    7.13380483726945   -2.21167842582367
C         9.45655741541086    7.72723971462568   -0.93743620226759
C         8.85092768952835   10.27347487214670    5.91506078644748
C         8.35428824061254    8.86846909157266    6.25816030716639
C         7.29413601981039    8.96508810584489    7.35154556175182
C         7.88162820295764    9.62670697488891    8.59583116576613
C         8.46294319599969   10.99727731270409    8.25907131491196
C         9.50838878600497   10.88317382139473    7.14966831168440
C        11.54677114244486    9.75792977780167    4.57446002074326
C        11.59504215228376    8.37416994815919    5.22300767609022
C        13.00836034943582    7.80763471193985    5.12901690739649
C        13.99136335285490    8.74110509758116    5.82982650029462
C        13.91529185121802   10.14349576368919    5.23331817935884
C        12.49378129635321   10.70379296940300    5.31438767682573
C         9.17537011026754    7.52995036265591    2.66243424930854
C         8.27774060413028    6.55577696535330    3.09275853802223
C         8.63128215807178    5.21684306547554    3.15123699091041
C         9.90158414515225    4.81339207418322    2.78112520105947
C        10.81221204284012    5.76520425807961    2.36171427450737
C        10.45142372702855    7.10223666306987    2.30756235136601
C         7.03785855361989    9.28594078810333    3.28170467370811
Ru        8.64139638520865    9.52187110122907    2.44765419301935
Cl       10.57783775159749   10.23600355608951    1.26868740605822
P         7.72251472268089    9.43679055339546    0.32952836101475
P         9.78237189659085   10.29540500614143    4.30468002069978
O         5.97843686875613    9.27994245014242    3.74571865941398
N         7.64799308546568   11.73437907600381    1.68969959500731
N         8.89077166544056   12.81820195413862    3.43526956135691
H         8.30542145105032   13.74193106534881    1.68616992685249
H         9.59514558737089   12.51024734059912    1.51578480733959
H         5.09410517680235   11.31510677032019    0.80581728012212
H         3.06520101360870   11.84144360996785    2.00530740330868
H         3.14534492759432   12.86126812273367    4.25023018298786
H         4.45843781723996   13.71143984988363    6.13055296758277
H         6.64588002780688   14.21740339229874    7.14885750165570
H         8.71709326226804   13.79841277997855    5.91314255793486
H         8.56357087151147   11.64806911386866   -0.17690910840144
H         6.79852990707432   11.74383482235952   -0.27892470555408
H        10.30426618315880   12.62598174055874    4.94131185996331
H        10.86524276703032   12.22921719596657    3.30299742142563
H         5.45885093465534    9.18330782708059    1.02379095326057
H         5.20924501209502   10.37024356159615   -1.20411260763911
H         5.67108776971202    8.87866547325877   -2.01644636631033
H         3.29057649009525    9.19557607962088   -0.14065268295679
H         3.21102753329741    9.09296387520527   -1.90259357826039
H         4.17690502151291    6.81954296468813   -1.83666726034006
H         2.72195404847772    6.89567388019382   -0.84128899668260
H         4.09992904735767    7.13728137013545    1.19841185516048
H         4.56947945830512    5.68105610078177    0.31747148061518
H         6.57177474349757    6.97734420519089    1.06700649003043
H         6.47393857879080    6.88597936883905   -0.69710073263657
H         7.71629326317537    8.52616205714135   -1.91490878982992
H        10.10082121849734   10.35464394361201   -1.40517138039583
H         8.62567820205518   10.80134455137456   -2.29393371661877
H        10.43583318047189   10.15302143136129   -3.84414170543417
H         9.07283188301067    9.03624641376850   -3.95739972964932
H        11.63701199469272    8.56587346960661   -2.37363767806738
H        11.21524092930069    7.79232263759196   -3.90543647508449
H        10.71462229887711    6.31023049952223   -1.95736946474163
H         9.24308477300322    6.73202514694276   -2.83765755500724
H        10.26658862879640    8.09589315772217   -0.30684037447055
H         8.91831438492025    6.96299353814959   -0.36841944798958
H         7.96148273554255   10.87500521846103    5.66798072651428
H         9.17841276263847    8.25005303060746    6.61472249081496
H         7.94675945760487    8.38910296001478    5.36447645804081
H         6.45015587988729    9.55389723835440    6.98547573651655
H         6.92523734578592    7.96831988680493    7.60048064076431
H         8.67155573333813    8.98985813733937    9.00209012793632
H         7.11130126252524    9.73108336191785    9.36251398952643
H         8.91636624455691   11.43711553591493    9.15068613771146
H         7.66073183381900   11.66028548854559    7.92672890166242
H         9.92183614883420   11.87086462982394    6.93793336451093
H        10.32143684903863   10.24092508574333    7.49302629082201
H        11.91756639461148    9.66110296563945    3.54310591112179
H        11.32187028067474    8.45445379048538    6.27706907409505
H        10.88302203060549    7.70698977634981    4.73055555327450
H        13.28689546679794    7.70095236160330    4.07904060771820
H        13.04131617989365    6.81631739709120    5.58543368801435
H        15.00822034300382    8.35453392506759    5.73594588702509
H        13.74994957292390    8.78702243532298    6.89486847012943
H        14.60123241441060   10.80966457977463    5.76183178715050
H        14.22507149416423   10.10689761600293    4.18653897881837
H        12.48572633485816   11.70037684095957    4.87120836406080
H        12.20338470479034   10.79391318123743    6.36178998278884
H         7.27529915647885    6.83224069570583    3.40014858048042
H         7.90737359999566    4.48785157419509    3.48890553757149
H        10.17900688344103    3.77000599213731    2.82374310268610
H        11.81279421585380    5.47085478056713    2.07576657201535
H        11.20071972676172    7.81207328149097    1.98360474649389

