57
CSD_code = BOHDEI | q = 0 | S = 0 | Stoichiometry = C23H30AgBrN2 | MND = 2
C         2.19752337009728    1.81829101136870    2.99428596637608
C         2.58468637325605   -0.25649965593650    4.37170431518620
H         1.99841043312608   -1.07285477870246    3.93684711871655
H         2.53163426468246   -0.36271704347205    5.45948051370329
C         4.04244646105630   -0.33803533372967    3.92250765983454
H         4.56821863674175   -1.08017978239606    4.52599533887891
H         4.51485023445831    0.62929866831249    4.10665845303208
C         4.17875372629698   -0.69878917186320    2.44256007403356
H         5.16161795888371   -0.38790541574581    2.08438422056666
H         4.10999563382898   -1.78107212576588    2.31319821027827
C         3.07917927790365   -0.05550471733853    1.59747182654029
H         3.36048940950390   -0.10319788704007    0.54280113670151
H         2.14781861030012   -0.62131640970064    1.71550826390619
C         1.17142842930722    1.59285465928773    5.09409969531023
C        -0.17150693046512    1.21602778667058    5.13911423587235
C        -0.74368037641273    0.27012353651529    4.12480820450490
H        -1.81903109306232    0.40537423367541    4.04466627670103
H        -0.55412133626668   -0.76318783221324    4.41909026121847
H        -0.29968506230927    0.43316766998445    3.14451041956986
C        -0.97644936847931    1.72539066392033    6.14743687249308
H        -2.01828109858151    1.44031224656910    6.17978278075395
C        -0.47621078750700    2.59551258025853    7.10329914379215
C        -1.36262003961899    3.16885950380039    8.16462014475752
H        -2.26221618004097    2.57126326428049    8.28843556358440
H        -1.65979940905903    4.17974189203503    7.88548050779140
H        -0.83961146213058    3.22598271415847    9.11678975695362
C         0.86473966089268    2.94868718384707    7.04295572639981
H         1.26578068408606    3.62738241372957    7.78162285396716
C         1.70298263998807    2.45917470925885    6.05358609207473
C         3.14375297039542    2.87254485209073    6.01429889177113
H         3.41993409731409    3.37554183591710    6.93678016327093
H         3.30695014968020    3.57139667832544    5.18639562618461
H         3.79886215586165    2.01555874651596    5.87055872329440
C         3.01029076807960    2.27342206383947    0.84310987944873
C         4.17269284088174    3.04831640500499    0.81344936980420
C         5.20867284250841    2.91907014302162    1.89070206009109
H         5.67583990072064    1.93507607579767    1.85973420005419
H         4.75585162928765    3.04981727222570    2.87372633081046
H         5.98152046741485    3.67214571445595    1.76594962248420
C         4.35247970181601    3.93897857319965   -0.23326497492264
H         5.24441174420879    4.54818178739830   -0.25729626784015
C         3.40852523954292    4.07624856657340   -1.24107165138261
C         3.60328487669885    5.07911495404286   -2.33462172540081
H         3.06619612002323    4.78668605459507   -3.23364770907405
H         4.65811966135946    5.19762421971382   -2.57140047649054
H         3.22010112651713    6.04686368589006   -2.01043204106676
C         2.26619619025503    3.29127913885378   -1.19308224673361
H         1.52038217203492    3.39186963946294   -1.96845814283065
C         2.04790633151610    2.38825884265560   -0.16333765636940
C         0.79967317912910    1.55612717604164   -0.13775208453292
H         0.38081031629720    1.51893379308680    0.86742906608995
H         1.00911298964098    0.53478759907421   -0.45837028932402
H         0.05262941728079    1.97562355183024   -0.80598264281319
N         2.00585044624019    1.05191247707397    4.06226867096864
N         2.81286732514719    1.34313229358261    1.91364468054868
Br        1.15302427659662    6.27283449198548    2.90748648789018
Ag        1.60291840306821    3.93046878395346    2.93208250257033

