72
CSD_code = BOHDAE | q = 0 | S = 0 | Stoichiometry = C28H40AgBrN2 | MND = 2
C         9.46848114527603    7.54300566674132    6.35345400826625
N         9.41737531445359    6.49661761446048    5.53772084491864
C         9.50247713677409    5.18088902704791    6.08886942507027
C        10.75461296253692    4.57038621396195    6.20815990020541
C        12.02810146432908    5.30890691980611    5.86993606202387
C        12.84119875204367    4.57107870400881    4.80469490995830
C        12.85145082049154    5.51797594008142    7.14257524254452
C        10.81111095075136    3.27026505560032    6.69128566726020
C         9.65892518123502    2.59553206760416    7.04464455717471
C         8.43100042555423    3.21841826203718    6.93973733427581
C         8.33020834678960    4.51884572946702    6.46324310700446
C         6.98191464377505    5.19580494779465    6.39423424479492
C         6.02616343820433    4.43586102412477    5.47235229686375
C         6.39836156341396    5.33108366703879    7.80193761208264
C         9.28055143801651    6.57414507324006    4.09053349064692
C         9.86006642852908    7.89346026602467    3.59619874574333
C         9.22252591653369    9.02361759804383    4.39464744571321
N         9.36847748075768    8.75372942896494    5.81761895761387
C         9.40893524771032    9.89845891464536    6.67208098490432
C         8.21879122908939   10.39506641577179    7.21020495783423
C         6.89886073168457    9.69284253933408    6.99682973211135
C         6.36273366224829    9.18517216461540    8.33681146164718
C         5.88475234681755   10.61002625834220    6.31055161689379
C         8.27623735688726   11.54412875962984    7.98791995902800
C         9.47904043501020   12.17890411168564    8.22690617703646
C        10.65022499191586   11.66341664328173    7.70709821282341
C        10.63685099716597   10.51822938511308    6.92279034719768
C        11.93218580882661    9.93962460399240    6.40426135804420
C        12.78089162308629    9.45438010033917    7.58137658656694
C        12.70138775461466   10.94998037521005    5.55128704183003
Ag        9.69911780809980    7.27305946148902    8.49144531153720
Br        9.95095125898354    6.97076903631093   10.84811577409752
H        11.77141256773972    6.29678683251168    5.47584409286262
H        13.71627465767615    5.15691051648550    4.53125483307702
H        13.18020636256906    3.60618723077802    5.17165451299916
H        12.24406679244733    4.40474264003478    3.90966516136716
H        13.73072330863809    6.12217293971682    6.93121789797195
H        13.17585312241084    4.56750774459387    7.55714649014124
H        12.24916201660903    6.02971261719770    7.89893605607142
H        11.76664304699113    2.78104068431878    6.79913085309114
H         9.71984191658995    1.58413101309200    7.41730831343872
H         7.53998841892633    2.68820680143969    7.23795810253993
H         7.11049169182509    6.20572500607391    5.99261345908675
H         5.08486740734918    4.97421141727130    5.38345337025108
H         6.45743657361021    4.32504969446536    4.47885330502729
H         5.81513885720926    3.44435186464546    5.86367452037055
H         5.46760515286628    5.89290786777564    7.77367808125877
H         7.10414712440810    5.85605582105596    8.45095216692294
H         6.19988028659364    4.35600866523925    8.23803892064399
H         9.80711734851226    5.72390217404750    3.64831951255567
H         8.22159998921100    6.49758221521926    3.81047740187833
H        10.94155698228277    7.89967959636156    3.75218742129287
H         9.66729573103326    8.02101526519886    2.53132189085951
H         9.70331454957290    9.98041423209881    4.17340408978935
H         8.15841134001058    9.11379343858096    4.13906353810928
H         7.05870251761286    8.82182242744648    6.35373499226830
H         5.45442599281473    8.60623477575341    8.18715134649565
H         6.13965385225266   10.01123441066227    9.00627812575584
H         7.10779724862405    8.54766758057483    8.82113892064047
H         4.96633090968550   10.06410243376449    6.10504290014941
H         5.64047019643703   11.46047807200537    6.94126008731142
H         6.28224192232529   10.98668865974450    5.36960341714427
H         7.37095738215773   11.94448798518433    8.41703054473582
H         9.50594433637938   13.07133511404590    8.83387218956838
H        11.58705592943595   12.15428529653760    7.92018011060697
H        11.70736901890911    9.07075601650444    5.77864835166440
H        13.67904886438804    8.95696377735334    7.22250231900866
H        13.07530083557192   10.28467388409246    8.21735034998613
H        12.20891838455006    8.74773270419430    8.18942878904137
H        13.59179218683839   10.48435571303937    5.13399748424735
H        13.01267433948613   11.80518450088329    6.14483113606173
H        12.08421617584328   11.31121839420083    4.73037156999548

