72
CSD_code = BOHGUB | q = 0 | S = 0 | Stoichiometry = C29H34Cl4N4Ti | MND = 5
C         2.85286368064209   16.43061737904634    0.49433404830416
C         1.76669726218705   17.25011704350900    0.08504532982865
C         1.92892709492591   18.34869387128878   -0.72403822784655
H         1.06661257669131   18.93645494460955   -0.99890206603491
C         3.19217100822356   18.69357250155455   -1.18896474900518
H         3.31654727659432   19.56114514493671   -1.81614188452634
C         4.28998582625912   17.90512579127939   -0.86751045686039
H         5.27111403715776   18.14153469652693   -1.24928874072039
C         4.11132777987830   16.80675421961666   -0.06349265314794
C         4.50042210839003   14.73908898589690    3.57261959910210
C         5.23280676114434   14.72246617031742    5.68795868154343
H         5.74597143545240   14.33866733112812    6.54629589075518
C         4.55535189844824   15.87854579557586    5.49797529325933
H         4.35491912466060   16.69530707381938    6.16134688026538
C         5.90442117632886   12.82387600541354    4.30312278121613
C         7.14330260874647   12.88373629554145    3.66010235716603
C         7.85012203167749   11.70641759488426    3.48430069414048
H         8.80151862465172   11.73572440661394    2.97353119358980
C         7.35419711706168   10.48977537325017    3.93404351145514
C         6.14047268096488   10.46927994489224    4.60294663903081
H         5.75150003281651    9.53059264436842    4.97061425248479
C         5.40187283294362   11.62640684083214    4.81016858840136
C         4.10817075493263   11.58898607060509    5.56236557411146
H         3.28960157049152   11.93824043989655    4.93177595394477
H         4.15007413540832   12.23094201328651    6.44246056295567
H         3.88624396630997   10.57542340340513    5.88483576728489
C         7.68442032917324   14.18915279062696    3.15872563706657
H         7.12770044132548   14.50328117034016    2.27292898310812
H         8.72954034209791   14.08306971216268    2.88022868317956
H         7.60033374361480   14.96997921303232    3.91575614651713
C         8.12512098340838    9.22888281078086    3.69051064376076
H         9.17531782810069    9.36551541609091    3.94277892964725
H         8.06752113864685    8.96056252301132    2.63571736245502
H         7.72423024411830    8.40579494768006    4.27671623806729
C         3.44684418786726   16.99032623331746    3.62926853558827
C         4.21594864834116   17.99198456037006    3.03596830348518
C         3.56655629774376   19.10259890434437    2.51919771812132
H         4.14865086100139   19.87494898000832    2.03859411348929
C         2.18878138320902   19.23826338036110    2.60247894700013
C         1.45522922010112   18.24278295744233    3.23225244877570
H         0.38273957346291   18.34386202399270    3.31023748014265
C         2.06178395927952   17.10799839966079    3.74856467715753
C         5.71175932315825   17.89065136610389    2.99517809094450
H         6.03086064594355   16.88426692727412    2.72961003098783
H         6.13098619118699   18.13474579014522    3.97303195727681
H         6.11721364117669   18.58652271549055    2.26639991989600
C         1.26155118873044   16.02904135561723    4.40503669304299
H         1.63521689451980   15.81356598741292    5.40632549263446
H         1.33301771854538   15.11242951005865    3.81432320727825
H         0.21620833304492   16.31604419732934    4.47443523910116
C         1.50853425532927   20.45052569859090    2.04570037205865
H         0.48583078552491   20.21863450824370    1.76011867482841
H         2.04439604648968   20.82357727320347    1.17647122978883
H         1.48153513204743   21.24193568622511    2.79575553092396
C         2.41793767441103   11.55326758095094    0.02305576830789
H         3.41215875269544   11.10846896401564   -0.05230407584202
H         1.80344611231035   11.18454473298359   -0.81054002172283
H         1.96316722740159   11.23897336120982    0.96428430372159
C         3.09072128149150   13.45677077151292   -1.28468170647056
H         2.53892154162648   13.02483003968552   -2.13263143037366
H         4.13608378450586   13.14023993935929   -1.35162468401690
H         3.03958475492185   14.54610633813153   -1.35578154477859
N         2.75686266661678   15.40604160737211    1.29870837667305
N         4.11510097212147   15.86842914832717    4.20251992507622
N         5.18603634073944   14.04000101474705    4.50234056014051
N         2.53979328578725   13.01056515657776   -0.00581316368839
H         1.59775811145821   13.40604464303500    0.09463128006771
Cl        5.27342169235857   12.57898836095207    1.18670152564343
Cl        2.12193090756420   12.84745153851404    3.03483343737044
Cl        0.19942097577498   16.78157504441909    0.63653765528827
Cl        5.39595618126083   15.70814267485801    0.33316679459775
Ti        3.61785299676711   13.97262206235268    1.74758089300566

