99
CSD_code = BOHHOY | q = 0 | S = 0 | Stoichiometry = C44H51N2PZn | MND = 3
Zn        6.48606239786060    2.90936535641652    3.33556790251708
P         4.71042539021429    3.16022730075398    1.81138454229406
N         8.15079216171649    4.09512559195261    3.13513658741723
N         7.64500649467967    1.45770602335844    4.01029681229649
C         7.83769980519468    5.24162953063248    2.37384403605753
C         9.33656899137262    3.90374196475278    3.63168265413198
C         8.86508747289624    1.57739572550687    4.54970321839209
C         6.98978573186104    0.20644304080825    4.08826872322227
C         9.67316514829089    2.75566425949205    4.42482780651226
C         3.40058279528267    2.06494808806991    2.43252538346792
C         7.75108869807027    5.13235892962483    0.97904736047817
C         2.06245986518203    2.45756081078996    2.42554902957773
H         1.79975291834002    3.46482791307772    2.13364838959289
C         4.06634784681398    4.79641486409203    2.30490165977892
C         5.46617628816290   -1.29642962398634    5.17681613494629
H         4.80879621440060   -1.53289131861887    6.00022610011418
C         7.15274351429415   -0.71286139728326    3.04247102870044
C         6.13585156731937   -0.08186494430342    5.16201478015868
C         3.43898975966590    5.02482856957545    3.52827693687785
H         3.33155713490532    4.21353996822739    4.23768857062668
C         1.07141960125083    1.56925602473530    2.79743709019733
H         0.04028385022241    1.89314078548304    2.80285273600634
C         8.03890171886852   -0.38595510263164    1.86289145392762
H         8.56913248158339    0.54766691076205    2.07711751765994
C         5.62743474152465   -2.21078816734956    4.15325965745123
H         5.10246351317592   -3.15468173033263    4.18184213226937
C         9.42265295130969    0.47624557002331    5.25856407794902
H         8.83878243981752   -0.43047350812112    5.31220908832444
C         2.94968914609457    6.27799902283947    3.83831940594911
H         2.46080579468022    6.44230240297435    4.78822871152017
C         3.70751572370321    0.74407313320214    2.75489149483549
H         4.73730107857795    0.41513882175550    2.72779737153029
C        10.91300077237983    2.77018590815431    5.10477097087498
H        11.51154659779573    3.66596153741667    5.08162133089168
C         7.41061383517101    6.26253355221284    0.24963358511252
H         7.36913737937606    6.21135725658479   -0.82688696134725
C         6.45898826480897   -1.91310108725599    3.09037496496926
H         6.56907719076168   -2.62632694874215    2.28733522339670
C         7.54684953803853    6.44930034323367    3.02521956205886
C         5.93119503539509    0.90933589188316    6.28412862805845
H         6.53911158492672    1.79951323297332    6.08117250093859
C        10.42552879732095    4.91127375757342    3.33949640704298
H        10.10257525715444    5.59414349624371    2.55661697589784
H        11.33637672030669    4.41066200393514    3.01885374598851
H        10.64933021713788    5.50271535578349    4.22657768753778
C        10.63593271482961    0.53304619522839    5.87672671156775
H        11.00964304963416   -0.32595565630058    6.41561412833053
C         4.19463403399309    5.85065492513985    1.40732415806055
H         4.67218351787485    5.67546732578702    0.45455600032846
C         1.39138636867721    0.26941207167452    3.15316325626024
H         0.61366254474327   -0.42046061940111    3.44611047763597
C         8.06994547451288    3.82432298399610    0.29009058987011
H         7.88915843171770    3.01120035663766    1.00702028617666
C         7.11550320447273    7.45548165226392    0.88087606254731
H         6.84237930559607    8.32208384885902    0.29721646510194
C        11.38872571389745    1.70931559908252    5.82373027528161
H        12.33545403091122    1.77601917771232    6.33743706249315
C         2.71376569338584   -0.14243527412100    3.11839203458611
H         2.97746009416888   -1.15685155408343    3.37906951575615
C         7.16620945591530    7.53973797054708    2.25904393347435
H         6.91705941568535    8.47149609299885    2.74163444193602
C         6.21142187572679    6.34779695265106    5.11900955324304
H         5.52095427819736    7.08922604993823    4.72336671221483
H         6.23775490751416    6.43209759917616    6.20356579923431
H         5.83206714630074    5.35741116281143    4.85731252979273
C         7.18314846914144   -0.16728635904843    0.61248851040168
H         6.61484453683716   -1.06268850009672    0.37084245780190
H         7.81619366110661    0.07930841402632   -0.23752088111552
H         6.48101435730376    0.65217343420757    0.77095629951260
C         7.18782440852027    3.56992459786038   -0.93115782112377
H         6.13862266295170    3.70087027306486   -0.67524579517574
H         7.32813929619692    2.54830661644777   -1.27626087307646
H         7.44135513272019    4.23749598045715   -1.75114177881779
C         3.71995933839187    7.10947951313463    1.72738618854970
H         3.83135716622287    7.92056876754025    1.02272556976689
C         7.61087105790721    6.54705856938346    4.53367079634152
H         8.24365660783459    5.73897412317041    4.91238331244663
C         3.09245277451184    7.32588570288198    2.94130007298424
H         2.71216781105550    8.30599926601714    3.19055090682675
C         9.08766373898444   -1.47398057248252    1.62966758914795
H         9.66783282384782   -1.63809267818267    2.53537754315145
H         9.76760911095687   -1.17253911304445    0.83542186027161
H         8.62394523249138   -2.41397418498258    1.34124854823053
C         4.46566936914043    1.34617925963186    6.35309934255043
H         4.14287780819495    1.74353983630179    5.39079578564904
H         4.33722017387910    2.11694627750307    7.11088869019676
H         3.81989059030621    0.50806839600800    6.60309541635879
C         6.39333091744736    0.32836817412974    7.62155396526295
H         5.81552078061594   -0.55476768209623    7.88248056147023
H         6.27120893433531    1.06456134510939    8.41335476162234
H         7.44371485560165    0.05072478398638    7.56950798171189
C         9.54732559144342    3.78398764630761   -0.11290057030835
H         9.78421852741477    4.62306005720618   -0.76465334451921
H         9.76409560196860    2.86015188486983   -0.64481238454710
H        10.19019720075904    3.83277427662576    0.76158097167003
C         8.21141139951455    7.86945402610396    5.01235759298355
H         9.14363802942455    8.07884559825500    4.49192430741307
H         8.41566345861779    7.81650351551921    6.07984680536204
H         7.52770288868705    8.69724277724677    4.84422460095228

