84
CSD_code = BOHHIQ | q = 0 | S = 0 | Stoichiometry = C35H38Cl5N5Ti | MND = 5
C         4.61977088556105    8.69824046057737    2.68037760041671
C         3.64959662526489    7.43318346282910    1.10280435102464
H         2.90098385607091    7.16229683442537    0.38624289396397
C         4.80778161253486    6.83265092257861    1.45612526632468
H         5.26996715361931    5.93299822369978    1.10392983757659
C         2.49500918040763    9.50251631359724    1.66470948204935
C         2.71206328718003   10.59242969737122    0.81892173003187
C         1.66115766708039   11.46579853428794    0.59130561822134
H         1.81592249457755   12.32037017212713   -0.05033485879186
C         0.41717613708957   11.26989226954391    1.17695322540694
C         0.22646438558940   10.16558430326310    1.99403565329565
H        -0.73970605330763    9.99949449739615    2.44812787670866
C         1.25066179630923    9.26356006584475    2.24756926671840
C         4.04172590109845   10.78513258588199    0.15541465194053
H         4.23002996785365    9.98182330401732   -0.55877586842897
H         4.84512350840087   10.77513196990912    0.89302264895148
H         4.06768428553677   11.73280548686033   -0.37490912181434
C        -0.69591014577173   12.23424044988078    0.90704033451497
H        -0.34508310767204   13.25698926267219    1.02707435528039
H        -1.53251886511006   12.06460274148323    1.57955793824328
H        -1.05012987438096   12.12077603613192   -0.11731587920058
C         1.04329967822934    8.07191355712727    3.12898918048633
H         0.04461747806262    8.08143247499299    3.55677020958656
H         1.77053431945827    8.06015756540421    3.94386189791864
H         1.16817849470299    7.14743626759322    2.56462639501318
C         6.67534411358261    7.31620114926039    2.93603286830012
C         7.77928029623628    8.00741259497609    2.43017254657055
C         9.03993177721314    7.64552647648565    2.87120607588869
H         9.90280729280045    8.18090797053702    2.50287924236097
C         9.21945431098726    6.61304033755372    3.78426682553610
C         8.10704506871373    5.93262111489422    4.25149432259089
H         8.23323618162974    5.13134476588783    4.96476370653959
C         6.82331126123745    6.26629322024346    3.83894503030876
C         7.58412731102315    9.11324905836332    1.43786073941560
H         7.08115089812148    8.74721533488025    0.54128723112893
H         8.54031608027263    9.54202507004087    1.15148130487479
H         6.96755057868828    9.89428324850894    1.88884858445813
C        10.59881493083216    6.25580838439505    4.24438736563898
H        11.05339788028382    7.11077507913375    4.74182759417470
H        11.22603093312055    5.98779384567745    3.39515523309862
H        10.57407586964202    5.42107291401897    4.93931755167145
C         5.62503873556692    5.52912294810245    4.35231543163412
H         5.90740447469384    4.86244639541849    5.16218688924211
H         5.16097798938800    4.93752212119439    3.56222806340251
H         4.88227839815623    6.23414577511675    4.72705371656328
C         5.57025672545025   12.57521285196822    6.23405599936642
H         5.53308629362646   13.14594660512581    7.17400082928696
H         5.10381873205928   13.17124280337530    5.44769854591747
H         6.61637975428471   12.40398807559196    5.97205663194728
C         5.38834523787515   10.58178328831766    7.55310583723566
H         6.45936604478087   10.40324941865075    7.44915190308024
H         4.87836939015809    9.62238706068242    7.65231316407300
H         5.22039162210732   11.17127050455104    8.46659089423198
C         4.13687365958685   12.54549371967245    3.02568434421548
C         4.36528271184324   13.70009598539676    2.23268597373460
C         3.38897678442377   14.63825487410304    1.98809197709067
H         3.62233900277167   15.49701472313208    1.37777747430589
C         2.11684071749130   14.48334134545655    2.52207310795464
H         1.35852555561599   15.22602095275862    2.33638732514532
C         1.83258487164182   13.36933403071350    3.29572947082507
H         0.85066510609628   13.22067209646655    3.71664520503174
C         2.82002971231731   12.43892583292006    3.52573288277478
C         7.72510174190424    9.56861787923156    5.19507199393821
C         8.06731421966467    8.61353042949127    6.19468766372962
C         9.32655056404231    8.50557449275275    6.73136883684058
H         9.52197481544111    7.75867152100291    7.48504796507589
C        10.33574003044171    9.35973366092414    6.30215591396764
H        11.32731977326155    9.27788533319837    6.71785385348419
C        10.06075011855583   10.33166573785315    5.34964202607470
H        10.82942435987036   11.01530799162023    5.02195052231645
C         8.79441496517746   10.42764476769797    4.82530701434483
N         3.55258170590931    8.57064950633306    1.86202630401735
N         5.38336968953480    7.61986916151575    2.41820373921771
N         5.05705359366191   11.61878146081293    3.30374320618749
H         5.96583667378415   11.88898450314980    2.93070798914720
N         6.53128481069616    9.64840075527514    4.67381063924249
N         4.89535230295615   11.28406955192212    6.36729482592899
H         3.90083868224149   11.46924458619494    6.53731264189206
Cl        3.71092545098555    8.38598694623194    5.54697213658712
Cl        2.51421030740295   11.01860593084399    4.46132450216543
Cl        5.95312162289549   13.91233424393071    1.54905846028613
Cl        6.76722650970544    7.60758010778823    6.71777209115870
Cl        8.40050476591880   11.65798036131839    3.67520162945596
Ti        4.88649632330393   10.01048163798280    4.41676946993352

