73
CSD_code = BOHJEN | q = 1 | S = 0 | Stoichiometry = C30H35ClN3P2PtS(1+) | MND = 4
Pt        0.92064913664422    3.04781131979145    3.54299895057769
Cl        0.12233207528702    3.47200037848222    1.38848499385117
S        -0.96249789582812    3.99028459261405    4.74321008414355
P         2.73128361033534    2.17151761651011    2.47361054705916
P         1.91728747222803    2.32883074294258    5.45926421034964
N        -1.70109928765042    6.51584381594081    4.88680824386034
H        -1.69972086971055    7.44560501032312    4.48365909970607
N        -0.28756293670693    5.99190907190512    3.15935268172454
H         0.02156787911756    5.24923176297195    2.50171620042637
N        -0.42661749470318    7.30700806419167    2.66773495721889
C         3.85196242195683    3.52335240254755    2.04389597695691
C         3.55395568482113    4.79595107987807    2.52174577734228
H         2.64564902357544    4.94119750531830    3.10691018067533
C         4.40186436404280    5.85338199003312    2.24750160567785
H         4.17233723390779    6.84259153480549    2.61400710448347
C         5.54783245885852    5.64036765008907    1.49736035482255
H         6.20724624548545    6.46561207529902    1.27709074660345
C         5.85085442703831    4.37155912933140    1.02655610158737
H         6.74533919691854    4.21145439347598    0.44435404943102
C         5.00822286763078    3.30932261514366    1.29898827644969
H         5.23706277683380    2.31860936938664    0.93045977489612
C         2.54631698137571    1.11792834980600    1.02216181948117
C         2.18229654671430   -0.21874347884265    1.17260278838429
H         2.07000300406198   -0.64554804545791    2.15977767888906
C         1.95099626213941   -0.99755183976825    0.05402795159606
H         1.67414217083893   -2.03432221148008    0.17046599694594
C         2.06193789764977   -0.44642434425965   -1.21304180255664
H         1.87535981074415   -1.05641524709113   -2.08333387293763
C         2.39606770316404    0.89013252010250   -1.36391317870361
H         2.46494799100501    1.32327777943499   -2.35007205695254
C         2.63139320999232    1.67649509958225   -0.25145935834273
H         2.87322252293224    2.72433185532052   -0.36319170814586
C         1.23512259040584    0.68924093320937    5.80342375246869
C         0.36816910215142    0.12796656825189    4.86972370955154
H         0.08757968207976    0.70298938856350    3.98571918863211
C        -0.14218691361843   -1.14045421395292    5.07647114488476
H        -0.81625941658914   -1.57635366702806    4.35490217648405
C         0.20936321602801   -1.84685887078091    6.21617527483250
H        -0.19112413320118   -2.83532676537323    6.38042596190070
C         1.06745351260680   -1.28686940520986    7.15091121813835
H         1.33217755293143   -1.83930693178967    8.03946381408170
C         1.58314135731478   -0.01983081742235    6.94929749966848
H         2.24538178890296    0.42722252783881    7.67816799343817
C         1.90575719520663    3.19597228971416    7.04279325539218
C         0.70601805056722    3.18812353739749    7.75402044709391
H        -0.14095738571609    2.64446999075937    7.35668488131916
C         0.61009063981375    3.86770674648331    8.95270677462162
H        -0.31650442994576    3.85552880295650    9.50616549373480
C         1.70531639033445    4.56226982083803    9.44464008413994
H         1.63129920053833    5.09075073433147   10.38255855726117
C         2.89396158541565    4.58142501482316    8.73333988927905
H         3.74443263785487    5.12441165923734    9.11702230457184
C         2.99778806434615    3.90723808921059    7.52891364060999
H         3.92634426458098    3.93123881510991    6.97799356422290
C         3.71112690367908    1.20700506041459    3.71679971994497
H         3.25515646072618    0.22061424319846    3.83811271126953
H         4.73343706066197    1.07440678973710    3.35152018883935
C         3.68209086652855    1.96131129275441    5.04218425016017
H         4.21822553390681    2.91027571114700    4.94079991337636
H         4.14095676008161    1.37852233735328    5.84660813241310
C        -1.00123715865687    5.60483332721354    4.22114183904639
C        -1.28174515078553    7.31770703087422    1.48948523124172
H        -0.85915463982523    6.72979421413320    0.66625533560216
H        -1.40974083760209    8.34706230127705    1.16446745549169
H        -2.25540705251452    6.90688652426063    1.75237096074832
C         0.89188662311308    7.85070360022689    2.39029772245473
H         0.77886536411588    8.88394766466883    2.07244386344197
H         1.41667468966263    7.28919112975108    1.60732946930243
H         1.47778960551418    7.82534608814685    3.30763795214259
C        -2.48163142625723    6.26332542950690    6.06901047323510
H        -3.50980790549778    5.99738737511305    5.81235870327440
H        -2.49024280050162    7.15500337350072    6.69166097314354
H        -2.03833993903252    5.43661970123341    6.62346030302763

