80
CSD_code = BOHKUG | q = 0 | S = 0 | Stoichiometry = C32H40N2NiO5 | MND = 4
Ni        2.36366740897977   11.05727464551380   16.66414813436161
O         3.76818969955774   12.56008236512373   22.88307518924482
O         0.29219694354432   12.25465498087014   10.68028943550584
O         1.94768342460366   10.44117818320961   19.49419473581830
O         4.91986180258792    9.83365263184202   15.94721625770527
O         0.48571054083708   10.41469663712259   14.50760142707361
N         3.05964037828165   13.93538539700761   17.55592348149176
N         2.44746862253548   13.92933741192544   15.50730157371453
C         2.59193939369327   13.12381838798392   16.58226074829829
C         3.20533539592531   15.21788056793920   17.09864304554727
C         2.81935474981746   15.21392480967481   15.80233766182344
C         3.27228760668346   13.55526852918005   18.91053519435188
C         4.49658847415447   13.01084929449349   19.29697373376347
C         4.68661684185987   12.67320766752132   20.62974557834822
C         3.67384886074179   12.86011704490049   21.56026705975351
C         2.45916090389940   13.40353031825140   21.15030085374376
C         2.23888135731995   13.75649621439323   19.83271901979225
C         5.61500966146723   12.83333888618594   18.29574582461096
C         6.40632058098311   11.54499956882539   18.52001301312213
C         6.54524349824341   14.04930617589473   18.34558335589875
C         4.94970944496964   11.96109694522224   23.35679130508832
C         0.90965044362626   14.34947894561669   19.42497781781556
C        -0.23454433643304   13.37994094680032   19.72268827914841
C         0.68802167092720   15.69013691641997   20.12935657253249
C         1.88454273974435   13.52833781252074   14.26344957846763
C         0.52001109086923   13.72884888442558   14.05110587159594
C        -0.03919604816650   13.29448760141250   12.85714583763961
C         0.74832326856343   12.70178077879333   11.88041594361670
C         2.11565963660139   12.54867741162002   12.09980069483115
C         2.69905369464910   12.94207432149452   13.28828337464192
C        -0.35051143306122   14.37422111229027   15.10681565141074
C        -1.06515042963151   13.29329499222295   15.92137012993353
C        -1.36089679681259   15.35617368869275   14.51029467423832
C        -1.08665041206868   12.33046258590537   10.41161674948166
C         4.18572045271210   12.79046656954273   13.51143831717745
C         4.73910046858459   11.49626932723867   12.91753607314568
C         4.91299184068118   14.00369238343217   12.92345152304384
C         2.02421938026392   10.69570628613326   18.38268962897970
C         3.93920975506918   10.34899476774781   16.22761581097654
C         1.16787501632329   10.66814251639740   15.38841726795922
H         3.55707644940262   16.00956757438037   17.72764863025793
H         2.77053461889405   16.00106499635603   15.07801175529898
H         5.63333704496870   12.25870264621435   20.93122620189453
H         1.69286000146257   13.53556546077814   21.89644446799596
H         5.17373937660737   12.77705251187024   17.29510215565703
H         5.72971151720546   10.70400896081487   18.65347567428607
H         7.05125476709305   11.61871248542105   19.39237153892021
H         7.03604092125415   11.34496409956130   17.65591938294722
H         7.35497109146527   13.93133935643130   17.62899528120967
H         6.97478683451589   14.15642625880813   19.33953027628334
H         6.00353088512496   14.96182550029651   18.10583499657563
H         5.81401814808019   12.62244729738499   23.23408370628828
H         5.14546980850094   11.00791012395184   22.85567684112074
H         4.78427702866407   11.78185854490745   24.41799421034030
H         0.91033861631055   14.53080590478650   18.34620281204619
H        -0.28932560693503   13.14990059852046   20.78293653920599
H        -0.09033784016147   12.45187159186299   19.17463506700907
H        -1.18215476091053   13.81693434807610   19.41531364604112
H         1.50268885449837   16.37762180522805   19.90998111579636
H         0.63460932165824   15.55648673460666   21.20639599438743
H        -0.24308526732866   16.14031712615311   19.79203060892133
H        -1.09700317748296   13.42085734610932   12.70152837222915
H         2.69908063283526   12.09715823028364   11.31535843010849
H         0.28863954373637   14.94349286789429   15.78984755745873
H        -1.67524565149036   12.66830965013246   15.27328899263324
H        -1.70713377422862   13.74941884495611   16.67164365882223
H        -0.33826586821424   12.65776849981135   16.42662364611249
H        -2.15547593915033   14.83677211385797   13.98126692960085
H        -0.87145114646238   16.04054936147622   13.82026155865985
H        -1.81877989561559   15.93873369761156   15.30693798961613
H        -1.43720260934304   13.36792255569287   10.39336151649171
H        -1.66954322581290   11.76060140732357   11.14199190720761
H        -1.21923967844823   11.89031344434151    9.42454903455618
H         4.37183274158558   12.76461924033458   14.59049026529120
H         4.77639643994197   11.54183815062878   11.83229773975300
H         4.12076137262436   10.65125612121248   13.21100785721114
H         5.74997099598178   11.32637928287691   13.28207870446642
H         4.71738179550055   14.07751875558728   11.85590113929392
H         5.98588486920996   13.90732312665792   13.07428014174297
H         4.57990517135311   14.92419886501657   13.39843723056848

