95
CSD_code = BOHKIS | q = 0 | S = 0 | Stoichiometry = C36H54ClMoN3 | MND = 4
Mo        3.26138437989343    8.40710039101967    4.23072734931880
Cl        5.54421561903392    8.40753430749869    5.04172335808966
N         3.65098113293612    7.14123958306081    2.82923634878129
N         3.04276914783818   10.11400015891541    3.22877968902188
N         2.65314279912590    8.70561271440395    5.98352081858246
C         4.60847133795791    6.07128463087330    2.51794968832387
C         4.02206481207408   11.07540378336215    2.70326662379330
C         2.69336302971119    9.48356756267163    7.21298267120338
C         2.59014045739694    7.31904271323396    1.94335246454978
C         2.76445987272418    7.63178944496134    0.58904621272328
H         3.76169643389296    7.80399955328116    0.20858316487650
C         1.68374855236526    7.70878501544876   -0.27346284944226
C         1.91089592286056    7.99249707529090   -1.72917434984094
H         2.30861205890255    7.10609789713441   -2.22444664089492
H         2.63403589306181    8.79569560631533   -1.86056430631915
H         0.98240744591365    8.26819756535369   -2.22258577524164
C         0.40274491774041    7.49235238767225    0.21796049202891
H        -0.44142402028657    7.53642951911067   -0.45453034802524
C         0.18952498395748    7.20615158846243    1.55908202303564
C        -1.19831351108819    6.94778098049163    2.06258997991855
H        -1.18682029245988    6.71055411575438    3.12309705131941
H        -1.64963422939942    6.11592541779609    1.52238187104026
H        -1.82133994167939    7.82679508870116    1.90679921817849
C         1.28144343915895    7.11795313077593    2.41042656134906
H         1.13758502318809    6.77697518159886    3.43348424769728
C         4.04728730380423    5.04851412174277    1.51550129337301
H         3.07549076911853    4.68635023002041    1.84812128325547
H         4.72782753114392    4.20302094657351    1.44755800739206
H         3.93294696132519    5.47150716132931    0.52135141360733
C         4.90548711850111    5.31002841938752    3.81737129978581
H         5.37187558260410    5.96898056427668    4.54483024172893
H         5.58700478987568    4.48600175895633    3.61741347629987
H         3.98133703549561    4.90758151643945    4.22832427819662
C         5.92177974084392    6.65891135252299    1.97790909756788
H         5.76274493889935    7.16663566529377    1.02918325191128
H         6.64760890094336    5.86361405676135    1.82422778436301
H         6.32944844196645    7.36780179963462    2.69630031981697
C         1.72766626867929   10.22281200505878    2.79532392299887
C         1.33649861576507   10.40624326411591    1.46028807096182
H         2.08031927358737   10.43703685220243    0.68024383053356
C         0.00466209465852   10.52800053156972    1.10609487650967
C        -0.38268201477532   10.78980176126887   -0.31917660871883
H        -1.24713081181473   10.19242502543782   -0.60170108478907
H         0.43850454926946   10.56485003462701   -0.99393582134315
H        -0.64957318031766   11.84002680018063   -0.44305983820933
C        -0.97823481257789   10.43687896700860    2.08279347900478
H        -2.01833345287621   10.54109517775936    1.80640371873721
C        -0.63451729987740   10.23012108851261    3.41125782653139
C        -1.70287865427801   10.11691041229446    4.46014958104658
H        -1.31634137539679   10.37146540204903    5.44479225302807
H        -2.08500046727227    9.09545244986706    4.49703971216721
H        -2.53903383049846   10.77519717660217    4.23349989915235
C         0.70450625934591   10.14012819667094    3.75305712800314
H         0.98920431672558   10.07346135671916    4.79637462950078
C         3.37709947198627   12.38849376946047    2.22284174207777
H         2.88057343395534   12.29324665345090    1.26351759079903
H         4.15051091211657   13.14673010146738    2.12408819379660
H         2.64731553227704   12.73335725192688    2.95262429633461
C         4.98950441621869   11.47872263248823    3.82450584480123
H         4.46324852642473   12.05055935334831    4.58311161161946
H         5.78159834595109   12.10146933845476    3.41468588922357
H         5.44687422394536   10.60868930439059    4.28046948373992
C         4.83955703922247   10.42989821843232    1.57539094652121
H         5.29581874896172    9.51570749637577    1.95399909634773
H         5.62439061462654   11.10426599819503    1.24048520063284
H         4.20946777350302   10.18324723042580    0.72427625629482
C         2.16922234553448    7.38242698087964    6.05984753211203
C         3.03823823971823    6.33027391621104    6.40622068937421
H         4.08161065732360    6.54719023762031    6.60080331742913
C         2.55988987595842    5.03604364202133    6.56419980923684
C         3.48760573222313    3.92237710570958    6.95157725063180
H         3.32305861827801    3.04856711120310    6.32330914182977
H         3.30357257922452    3.62689660751475    7.98467601740062
H         4.52572103028264    4.23058865174979    6.86126352994553
C         1.20367863135619    4.78685346199650    6.40670348624113
H         0.82569876284269    3.78366901068793    6.54142278163677
C         0.31190179984527    5.81709623476245    6.10487768784266
C        -1.15170597234790    5.51596952613098    5.96602816218823
H        -1.32418869631100    4.85949560145137    5.11287984488334
H        -1.72817068929325    6.42774034049605    5.82666536435360
H        -1.51983967550291    5.00535266193645    6.85473905406212
C         0.79047655986802    7.10231400990427    5.94968025174040
H         0.10643041372372    7.91286216768227    5.73070466103143
C         1.29370982422830    9.62169205028045    7.83513771561621
H         0.61732786831796   10.13403623164113    7.15305831167745
H         1.35839317311610   10.20240076313882    8.75204226903361
H         0.88029140597809    8.64346798748158    8.07366838846183
C         3.63227165926664    8.82008138980149    8.23587046949983
H         3.22705131333913    7.86814617781088    8.57384228373299
H         3.75428481105514    9.47159583330475    9.09777382793565
H         4.60922074495021    8.65509058660386    7.78302991093837
C         3.24401536335201   10.86767577250976    6.86447102837282
H         4.27140056485843   10.76705124483563    6.52162799974514
H         3.22450892580493   11.51383408975112    7.73944301103593
H         2.64983523610310   11.32520374838376    6.07467716329968

