73
CSD_code = BOHKIT | q = 0 | S = 0 | Stoichiometry = C32H28N10NiS2 | MND = 6
Ni       -2.06326059819443    8.75159095977288    2.89876849490276
S         0.61165719530838    5.23883866788165    3.38056479339716
N        -0.88974574468202    7.51743290194558    3.73545002818479
N        -1.01079904323154   10.39656988081189    3.26947197696542
N        -0.21493512607198   10.75815949269966    2.29342433174125
N         0.45940345031941   10.00642121488335    0.11496717672888
N        -0.91706642654541    8.74984365271599    1.31344868931595
C        -0.28238596127455    6.52953466183144    3.50478430412940
C        -1.16730375988126   10.66666403904379    5.64728118338365
H        -1.19196860160143    9.59315050083274    5.76792307806848
C        -1.03081739371577   11.20879759782168    4.38542650779134
C        -0.91042602738511   12.61421995422845    4.23452402422853
H        -0.77416290424595   13.00785062640269    3.23881959998861
C        -0.96839892027476   13.42805424066293    5.32411122566343
H        -0.88414178875703   14.49927506737216    5.20767368996955
C        -1.14072467928587   12.90063487109091    6.62452561675430
C        -1.22794000445039   11.49068633883953    6.78217799594646
C        -1.22225906397973   13.72124459184289    7.76549763760118
H        -1.15668222099508   14.79262240322569    7.64109910055985
C        -1.37846363329615   13.17407423709418    9.00990235092522
H        -1.43824504678806   13.80961191297722    9.88084639852583
C        -1.45862769846023   11.78117361351559    9.16768969707924
H        -1.57856377154935   11.36731150242698   10.15807659948664
C        -1.38467802126778   10.95658474328061    8.08018984472668
H        -1.44762317363420    9.88381278458258    8.19246819635354
C        -0.21746197599561    9.90007809555068    1.28052099875806
C         1.29822687744170   11.11039914454595   -0.26934723064899
H         1.99715591837655   10.75354165602340   -1.02958201445162
H         1.85891052620326   11.42473771025650    0.61487063423546
C         0.48111523692416   12.28217375656053   -0.80539813190432
H         1.14347217334265   13.09859900675631   -1.07861808673842
H        -0.21109831761765   12.63126694520608   -0.04365201375457
H        -0.09002806704448   11.98494557079791   -1.68168902283607
C         0.12342535887226    8.90445173032702   -0.63190867429776
H         0.54586916678515    8.73377683917711   -1.60035021304737
C        -0.72060892345190    8.14024532131165    0.11642982922867
H        -1.17192563924713    7.19564423519323   -0.11340515744842
S        -4.75123130074820    5.25118695140431    2.40530669482783
N        -3.23671048236736    7.52293943581716    2.06533703562672
N        -3.11042057452036   10.40305360979508    2.53200147879727
N        -3.91050445071159   10.76089518398607    3.50578369933058
N        -4.58726904194954   10.00781117558059    5.68278571121667
N        -3.21026244692809    8.75128967210750    4.48476104818229
C        -3.84979164811588    6.53743531233298    2.29111753394400
C        -2.95918123903715   10.67124685635448    0.15319319020137
H        -2.93475157054338    9.59769048229240    0.03276276947644
C        -3.09304801351891   11.21387570487394    1.41507725889402
C        -3.21252404765104   12.61944209454588    1.56570146299538
H        -3.34574897197497   13.01356911347790    2.56163652561140
C        -3.15760656784626   13.43279245439342    0.47557555796087
H        -3.24141039450218   14.50407606254411    0.59187463153983
C        -2.98984690852945   12.90473555335477   -0.82518161646908
C        -2.90241735523583   11.49474038442454   -0.98230214567741
C        -2.91373239313231   13.72464686013987   -1.96703607959122
H        -2.97975715734582   14.79606759171338   -1.84309758284600
C        -2.76279071566220   13.17674668093076   -3.21178195033235
H        -2.70774313038355   13.81176002615578   -4.08344246621970
C        -2.68213828372920   11.78381898959253   -3.36898530542517
H        -2.56635713242530   11.36935885541480   -4.35963615640322
C        -2.75052206244795   10.95990939503908   -2.28060283334028
H        -2.68717633044197    9.88709281046853   -2.39241248651255
C        -3.90810815680491    9.90253185270021    4.51842807948881
C        -5.42693652503666   11.11163855443056    6.06567440758033
H        -6.12431097663851   10.75569891033889    6.82774933664728
H        -5.98938362755603   11.42309274856290    5.18147934088831
C        -4.61070626950866   12.28590999250799    6.59747526865964
H        -5.27367502102804   13.10278641608974    6.86780053009580
H        -3.91891109909102   12.63275629126250    5.83431153394085
H        -4.03923072563403   11.99225879950834    7.47475041931081
C        -4.25461397441508    8.90391891468173    6.42834254591791
H        -4.67942038800548    8.73214179886574    7.39557566032898
C        -3.41027892929568    8.13976719199279    5.68022024592012
H        -2.96087545788968    7.19399680280650    5.90907319592666

