75
CSD_code = BOHKEQ | q = 0 | S = 0 | Stoichiometry = C29H40AuClN2O2 | MND = 2
Au        1.55777061934633    5.69430367871742    5.90384996560507
Cl        0.07202411574421    5.69172145461165    7.59044852926741
O         2.03957986553251   11.95510719833855    5.16099388063626
N         3.47980975742452    6.76300019104961    3.86849759061901
C         2.91004372473616    5.69308123911264    4.44711409501213
C         4.39914574641161    6.37030097925108    2.93144330490779
C         3.15028721350132    8.10408359029041    4.20273867557846
C         3.80206263669753    8.72069753535502    5.26862582761830
C         3.44579946667981   10.01890843096234    5.60698464407558
C         2.45745731699659   10.69019156169145    4.90047723686844
C         1.82130579252496   10.05123971778258    3.83775591606662
C         2.15061761768082    8.75948408679525    3.47683778496625
C         4.86816919076025    8.00426160928178    6.06442931680286
C         4.41197106917007    7.80834291641399    7.51150871774229
C         6.19875077413304    8.75855528009909    6.00375228007290
C         2.58004922950034   12.63172151186184    6.27100290541286
C         1.40657296395033    8.06514869546775    2.36052923383404
C        -0.02675585649588    7.77275534646841    2.81075044756250
C         1.42013769935613    8.89043263822391    1.07282286281336
H         4.96373889561006    7.07442788256496    2.35627379910942
H         3.94157925179681   10.49336974337276    6.43722325444364
H         1.05002487128165   10.59392605258652    3.31700951837075
H         5.02979456442278    7.01217302175061    5.63131193748164
H         3.46203377660100    7.27716247463399    7.53849259693591
H         4.28515615539586    8.76379708595729    8.01327749845571
H         5.14974084882930    7.22735391016901    8.06031298874340
H         6.11875226874958    9.73219853619701    6.47947018726704
H         6.50774513686187    8.90596346475950    4.97072820790219
H         6.97148542998474    8.19162485906112    6.51808820565361
H         3.65633809183738   12.79750834953059    6.15651991740425
H         2.38953779999479   12.08946792789568    7.20223345913659
H         2.07132016165889   13.59368951893094    6.30510464885878
H         1.89284866992243    7.10797832815482    2.14580260384684
H        -0.55922648122650    7.22337492256419    2.03777187191652
H        -0.56094342334771    8.69764949403674    3.01063723955726
H        -0.02223380577024    7.17668546213952    3.72184052923151
H         2.44106463469760    9.13095097922533    0.78315031018574
H         0.87059655987241    9.81898916277639    1.19681763550829
H         0.95609440765365    8.32610074618279    0.26699209531237
O         2.03954120255873   -0.56907794136809    5.16100210314392
N         3.47981078258041    4.62303512787265    3.86865635390519
C         4.39890039278075    5.01566335587389    2.93131817283585
C         3.15023726559493    3.28194752179214    4.20282933597213
C         3.80213192158442    2.66522358971216    5.26858544856945
C         3.44588141743868    1.36703406757969    5.60695145280910
C         2.45749530327364    0.69580168246121    4.90044814756712
C         1.82128579746388    1.33481565222676    3.83781458054629
C         2.15050482747457    2.62662078658668    3.47695106049866
C         4.86827652406861    3.38171500205268    6.06427750248946
C         4.41210748259368    3.57775686389359    7.51134015292798
C         6.19887108182912    2.62746929172792    6.00352645334747
C         2.58004236022762   -1.24565722640792    6.27101463313563
C         1.40643062983814    3.32084222864905    2.36058800992145
C        -0.02692431542343    3.61309206613156    2.81082756174631
C         1.41978472377796    2.49549657679835    1.07289956169398
H         4.96330863004355    4.31152803161061    2.35600247983284
H         3.94166959623303    0.89259127050082    6.43718904558171
H         1.05001865558373    0.79213059964635    3.31704520969266
H         5.02987572564163    4.37378313495756    5.63110584200110
H         3.46217674602247    4.10893804232424    7.53830640081877
H         4.28526628440983    2.62236769314303    8.01321135830507
H         5.14985161410197    4.15883571445558    8.06007039147633
H         6.11892219857992    1.65384971819799    6.47928826082059
H         6.50771076111395    2.48000708262527    4.97046542361347
H         6.97167522283682    3.19442913497655    6.51772502405070
H         3.65632202594845   -1.41145474376621    6.15647537659474
H         2.38958630747309   -0.70334708690388    7.20222506925939
H         2.07130267966969   -2.20761534035982    6.30518997767652
H         1.89267675146454    4.27802076245268    2.14580925763842
H        -0.55943406679266    4.16241120621143    2.03783383186752
H        -0.56103624035248    2.68815394849881    3.01073500618822
H        -0.02247080560852    4.20917222426439    3.72189233068695
H         2.44063974295565    2.25493609808881    0.78302217917934
H         0.87023227392053    1.56695852155585    1.19701928695365
H         0.95558174061555    3.05979575767072    0.26713599586641

