95
CSD_code = BOHLER | q = 0 | S = 0 | Stoichiometry = C37H52ClIrN2O2 | MND = 6
Ir        6.63594210623014    9.48964481106007    4.48715164404576
Cl        4.31405277557370    9.26737658789999    4.48809005381615
O         7.25236797258578   11.16055100242451   -1.85225133849640
N         5.79336632922229   12.19640999917861    3.41144246527947
C         6.20254737887008   11.47781600618868    4.48735245681650
C         5.11160553102862   13.31762109044334    3.81220463675641
C         6.12593873395820   11.91864066259294    2.05421144934679
C         5.19399781486667   11.31911848716864    1.20842386326670
C         5.55203777339413   11.05689252221572   -0.10880733703530
C         6.80824510676128   11.39206929328012   -0.58509071744748
C         7.70626584121170   12.04156933967475    0.25912168866987
C         7.38421943956391   12.31619131214996    1.57320456768276
C         3.79061185346605   11.00632951231011    1.66635086233815
C         2.82378909297231   12.04659491006982    1.09272988549061
C         3.35601531118191    9.59536258118980    1.27156533964653
C         6.40508265931235   10.47982311553231   -2.74520488748585
C         8.33625590406573   13.10367233393284    2.44618316730008
C         7.99243528277037   14.59479330008611    2.35088060284556
C         9.80930413044853   12.89800976094701    2.09270562991846
C         8.62083227673639    9.56894496209967    3.78193205519222
C         9.06027639147858    8.37578947371673    2.95997452606302
C         8.05828357471326    7.19941217290804    2.97323887293626
C         6.81866595696018    7.46406178007509    3.79502427722257
H         4.68268138134798   14.00449910840356    3.11207569810278
H         4.82830865438781   10.59148545514243   -0.75603294344323
H         8.65927005990580   12.32526336328145   -0.15363377678665
H         3.75335827394737   11.05680920333036    2.75609796480254
H         2.82485927008338   12.01404153825839    0.00482880749259
H         3.10368236308978   13.05150872991952    1.40212484925068
H         1.81409224954529   11.84748007987266    1.44334497303768
H         4.10765398507470    8.87713842743307    1.58523126426817
H         3.19713896996035    9.50148071870683    0.19953858930115
H         2.42662908504962    9.34992928523468    1.77855371860653
H         5.49339778562825   11.05064294044274   -2.95035074627065
H         6.13624005085607    9.48854069544228   -2.36655231557051
H         6.97379661495316   10.37069653821384   -3.66742086930221
H         8.19319147408477   12.78318461325254    3.48221540912071
H         6.98294609049247   14.78762525727694    2.70392941172798
H         8.06725596291297   14.93028397669707    1.31876753696657
H         8.68375113964691   15.17702369308812    2.95617487384718
H        10.06391072420276   13.40415290534617    1.16510803143693
H        10.04563864163194   11.84200351231703    1.98938473648997
H        10.43372485281436   13.31286791224274    2.88136483740546
H         9.20330337313041    8.70624853140325    1.93001990770394
H        10.03339562093938    8.03553510258429    3.32918377582904
H         8.54885964079752    6.30269816603244    3.36558960989038
H         7.75554375836320    6.97883984098703    1.94890073302715
H         8.84167712829309   10.51427618406107    3.29608883996165
H         5.88566523749855    7.22590120349680    3.28983588459702
O         7.25238911473053   11.16053452136603   10.82695646759918
N         5.79337201120030   12.19642026648437    5.56326608383228
C         5.11177487127571   13.31770756918651    5.16249231049016
C         6.12595104023168   11.91866044686639    6.92049687532348
C         5.19399765378673   11.31917386821855    7.76629667640073
C         5.55204456901859   11.05692777485324    9.08352360218936
C         6.80826181814906   11.39208129448157    9.55980227909390
C         7.70628648765475   12.04157799768741    8.71558703777705
C         7.38424305754268   12.31619790280610    7.40149831671147
C         3.79064291766506   11.00632467228130    7.30830786143187
C         2.82385553423742   12.04663852918979    7.88192560415920
C         3.35600187287517    9.59540048515596    7.70318102868634
C         6.40510205425363   10.47979163888806   11.71989776233427
C         8.33625232124439   13.10377435760673    6.52857561315764
C         7.99242904920471   14.59489211784606    6.62397086620626
C         9.80930824531088   12.89809374734302    6.88203215998182
H         4.68296015252950   14.00464245785950    5.86261289386982
H         4.82832794157801   10.59149494757813    9.73074084746206
H         8.65927508366389   12.32530830896766    9.12835654743651
H         3.75342173599924   11.05670362287466    6.21854203933918
H         2.82491226677159   12.01413296394458    8.96982903684868
H         3.10375416062341   13.05154456864718    7.57251318944524
H         1.81415516764166   11.84753464134360    7.53131853006615
H         4.10765173040795    8.87715314463631    7.38960845181786
H         3.19708427529506    9.50160653628319    8.77520477795088
H         2.42662510049679    9.34994028081033    7.19618637760076
H         5.49341635351708   11.05060763064817   11.92505321364726
H         6.13626056088068    9.48851580860676   11.34122601285362
H         6.97381463500659   10.37064771779567   12.64211256004811
H         8.19316893870890   12.78336600378887    5.49252447028859
H         6.98293651326083   14.78774364038558    6.27093398950106
H         8.06725582311239   14.93032940585691    7.65610133960692
H         8.68374443764439   15.17716104124269    6.01871227576347
H        10.06393953754598   13.40421919776657    7.80963474399034
H        10.04564063763750   11.84208353189432    6.98532729443828
H        10.43371606147307   13.31296328059873    6.09337067273133
C         8.62070855393854    9.56928575270184    5.19280186077123
C         9.06002975538086    8.37658498249579    6.01545928323808
C         8.05911659436546    7.19931504203756    6.00071326248601
C         6.81902886909469    7.46410932725054    5.17966179700367
H         9.20119483579228    8.70726324144970    7.04560001197044
H        10.03403041167713    8.03717386940609    5.64777035239754
H         8.55039224501860    6.30362960585614    5.60691429296332
H         7.75689070679055    6.97698692747517    7.02482554151684
H         8.84165083871818   10.51481999730670    5.67820672163544
H         5.88627183103441    7.22598333262232    5.68532450027381

