97
CSD_code = BOHLIV | q = 0 | S = 0 | Stoichiometry = C37H54ClIrN2O2 | MND = 6
Ir        0.22187666594568    0.98981353243440    4.37620020579923
Cl        0.36211210198428    1.15640211118946    6.69707112674882
O         2.56264407517563   -5.22481451761018    5.33187386994619
O         1.37491742051240    6.91183286162213    1.58449414855800
N         3.06203345173063    0.32127859002513    5.05927740320028
N         2.86818780105701    2.40209187212704    4.47479508543156
C         2.23133922583315    1.21995252616056    4.50437690654681
C         4.34180079281916    0.89918076882925    5.46832212411703
C         4.16559030661025    2.37993899988792    5.14099884155763
C         2.89297145784355   -1.09143520208301    5.10639759463131
C         3.00748682592390   -1.83892013643322    3.92696763880647
C         2.89764550285426   -3.22227344010079    3.97930574830070
C         2.68525601569805   -3.87416639985401    5.18317961638283
C         2.60912322080443   -3.12375058492317    6.34970885426382
C         2.71256970918757   -1.74458609780657    6.33572697278700
C         3.32393360304505   -1.19276158497636    2.59577420370624
C         2.59471381953170   -1.85712444513126    1.42473302334567
C         4.83480388395139   -1.24204519701520    2.34080057312050
C         2.67591253860862   -1.00958849871045    7.65487390679310
C         1.46911043146956   -1.41479332026957    8.50165887456125
C         3.97084385918080   -1.27808475750989    8.42981096434434
C         2.62044429739138   -6.03461310464039    4.18470404397019
C         2.46366748149516    3.56893147484538    3.77275964157088
C         1.68448014968784    4.54101217425924    4.39880675832915
C         1.30751562544761    5.67113210777570    3.68312613310037
C         1.70338301948357    5.84479856274619    2.36687289805155
C         2.51120785846447    4.88234526713757    1.76705364219276
C         2.90104803333683    3.74642542453255    2.45069293924488
C         1.26912097648961    4.40929354447877    5.84249080418293
C        -0.24416010442898    4.54790200547390    6.00337103279214
C         2.00706735224493    5.44261260541633    6.69765940113653
C         3.81117129535836    2.74738886009149    1.77078788621216
C         3.21341275231748    2.22429049813869    0.46366524552352
C         5.18012681802123    3.38275272569506    1.50783584071841
C         0.54872431907276    7.91199671659177    2.12759779442189
C        -0.02702580690246    0.46179654069153    2.32463922393064
C        -0.15360364093680    1.85513969393664    2.48416511727964
C        -1.46651972432694    2.60531044308458    2.45441520150402
C        -2.54424994220721    1.98393261458489    3.36135120008372
C        -1.93990363826174    1.26197397960616    4.54278184304279
C        -1.63116366477244   -0.08401318340547    4.54760219677216
C        -1.79729090533166   -1.01663225215969    3.37161388188931
C        -1.21130624228778   -0.44944752698028    2.06637187587669
H         5.16077089642045    0.43426955444227    4.90778600686825
H         4.51852823301530    0.73204145913718    6.53126824966014
H         4.12780858627643    2.99986227981740    6.04290303532674
H         4.94619139661478    2.77370100093849    4.48468726475616
H         2.99437968467994   -3.78623610915824    3.06745455051148
H         2.47084594426451   -3.65659255462468    7.27558553238945
H         3.00887134082532   -0.14738570230674    2.64031458053332
H         1.55986450872391   -2.06274938884705    1.68344213462526
H         3.07346628020125   -2.79171518922540    1.14085535055451
H         2.61491149846162   -1.20208028178700    0.55597454021651
H         5.17969362834892   -2.27373705610377    2.31395681721532
H         5.38617407553443   -0.72465991207917    3.12173177978043
H         5.06895532926996   -0.77407186730331    1.38688331186778
H         2.57504090400949    0.05960928907080    7.46215429176780
H         1.51842332340265   -2.45617168873297    8.80825392379448
H         0.55480037540786   -1.25190753157056    7.94031896433745
H         1.43016272653473   -0.79465208703777    9.39389280735119
H         4.85054903197368   -1.05042915642088    7.82980829536808
H         4.02732187305740   -2.32537886492080    8.71803077398204
H         3.99891113745230   -0.67184928904708    9.33256736183795
H         3.59440248122962   -5.96321353057041    3.68855676120786
H         1.82968598878471   -5.78042638805484    3.47112172631651
H         2.47249101588327   -7.05498459428996    4.53518759939911
H         0.70311541918351    6.41514649335553    4.17460003008814
H         2.82248992470842    5.05444042269967    0.74962578778902
H         1.53430264350904    3.41194593151398    6.19684982978316
H        -0.74436721625868    3.86101178035778    5.32647722411262
H        -0.58457029983076    5.56079793292932    5.79885196243704
H        -0.52479076576684    4.28652503755668    7.02013893296322
H         1.72411944860926    6.45463222794691    6.41514320893392
H         3.08477051935950    5.34624366622093    6.57669530718589
H         1.76181568186502    5.29699076368296    7.74682873762361
H         3.95231746956535    1.89020084921450    2.43344776965415
H         3.07698195459244    3.02815676708606   -0.25434441345891
H         2.24867355965774    1.75757895845517    0.64392956800758
H         3.87957097842875    1.48480231859372    0.02361236183120
H         5.09230538182131    4.19903007174191    0.79574915800414
H         5.86696921341423    2.64345084616857    1.10090825802904
H         5.60607241174798    3.78224269044674    2.42615595469677
H         1.02237058676797    8.40557531908825    2.98261927923703
H        -0.42283381008658    7.50949329376783    2.43205867994090
H         0.40199092662302    8.63924939718560    1.33051487483535
H        -1.82885166923446    2.66322022017919    1.42165798565563
H        -1.26744366204942    3.62869918107502    2.78102596546507
H        -3.20204849427073    2.77629886938223    3.72521606794199
H        -3.16429420152445    1.28821701690194    2.79366571574339
H        -2.85970754688835   -1.25157485341592    3.24088691568341
H        -1.28637590652144   -1.95197032152733    3.61159940848447
H        -0.89424200353692   -1.28148446176455    1.43324311270765
H        -1.97454427485455    0.09793405563498    1.51099034136643
H         0.89155716776590    0.11740954985621    1.86447910960348
H         0.67041306869730    2.47241128514338    2.13266389401964
H        -2.11999662380311    1.73374105453837    5.50439180551031
H        -1.60953916119424   -0.59513500709418    5.50866922167730

