149
CSD_code = BOHLOB | q = 0 | S = 0 | Stoichiometry = C77H68ClIrN2 | MND = 6
Ir        1.47531281734807   -0.15910263229393    4.68888988425158
Cl        2.44953879941227   -2.24557469981340    4.35097664460320
N        -1.01712360785209   -0.60484561742564    2.88832642396400
N         0.78624589481852   -1.01396213839250    1.79296370127952
C         0.33704570248924   -0.59269914811414    3.00622228716938
C        -1.39765977005437   -1.00579429104164    1.63376977288891
C        -0.26559048938645   -1.24472434444176    0.94359925389851
C        -1.96376870293559   -0.21234010435738    3.86980836786092
C        -2.71483578064800    0.94783931694494    3.66170127326199
C        -3.61232172493880    1.34475493071568    4.64448560330678
C        -3.76708114208098    0.62027196260785    5.81558599824704
C        -3.03226822706675   -0.54522508162783    5.98504574462799
C        -2.13886477758534   -0.98827574988918    5.02295665964508
C        -2.58642846523781    1.75249170452068    2.38558578346268
C        -2.77723564427319    3.23862070216629    2.63102606750871
C        -2.02517652186402    3.86132069677287    3.62223702425062
C        -2.14655809060428    5.21817328006190    3.85489565128683
C        -3.02228762959773    5.97890847681150    3.09813333016445
C        -3.77188300329964    5.36894814787467    2.10875522568127
C        -3.64987479764762    4.00896963438565    1.87539115682594
C        -3.54834112411849    1.22702163468726    1.33922704044620
C        -3.14054660219080    1.13483286186637    0.01328721994151
C        -4.00688578420620    0.67356584447101   -0.96132071797062
C        -5.29568827205123    0.29595874942509   -0.62443477520424
C        -5.71036803366900    0.38466516755699    0.69319586261980
C        -4.84392768619273    0.84784413331807    1.66815340226594
C        -4.73317876847507    1.06971942091723    6.86824782479621
C        -1.34727148077785   -2.26405937721170    5.18127250838390
C        -1.71243797148817   -3.30856791756584    4.14893799961573
C        -2.94922051979567   -3.32850196502670    3.51864746081041
C        -3.28301695468143   -4.36680244106353    2.66561085462164
C        -2.38922243947274   -5.40011776829621    2.44273222542283
C        -1.14738880160856   -5.37999813670195    3.05857145458248
C        -0.81007618081304   -4.33716888110055    3.90126828244451
C        -1.48266888475577   -2.91580171059729    6.53822674628673
C        -2.67238768220479   -3.51882722513875    6.93209002853769
C        -2.77684262835207   -4.12084895455268    8.17280891837871
C        -1.69095703326638   -4.13774469115361    9.03243304087176
C        -0.49572189156947   -3.56310174294329    8.63696589236690
C        -0.39279753553877   -2.96085931403846    7.39513622725175
C         2.11441001986625   -1.34695883654601    1.39706231121125
C         2.41576255162419   -2.67248672869155    1.06228538709086
C         3.71155722888551   -2.98355072816199    0.67448516016302
C         4.69587222276204   -2.01509823399149    0.56742042910890
C         4.35837215384762   -0.69875702583985    0.83944309862045
C         3.08542339957120   -0.35050001492526    1.26170177871999
C         1.36750957708311   -3.76386212523222    1.03434850552568
C         0.69081820460428   -3.81236833873950   -0.32065819392358
C        -0.64896974992376   -4.17766196851240   -0.40290363205936
C        -1.28730565482785   -4.25660940576770   -1.62696965826910
C        -0.59679457406621   -3.96962916992265   -2.79259269055061
C         0.73656755064098   -3.60563207303253   -2.72187995229238
C         1.37641935225641   -3.52968519813652   -1.49650546773525
C         1.95594845345486   -5.11660766270103    1.39826194397212
C         1.93258745270389   -6.20037899516677    0.53161326847031
C         2.46074179584588   -7.42130203734106    0.91906960890759
C         3.01857293366103   -7.57444879620936    2.17521416774535
C         3.04849704937327   -6.49537558457457    3.04353362927711
C         2.52166951778685   -5.27700961733432    2.65891187501834
C         6.09038483229513   -2.38325602158853    0.16545601655659
C         2.71705890181224    1.09048518091407    1.53910831522402
C         1.69235004855760    1.60911210962677    0.55675643683155
C         0.92721780647889    2.72198402153851    0.89203548362468
C        -0.00037043955406    3.24011131526974    0.00738441645265
C        -0.17536935860707    2.65225032016396   -1.23536885715066
C         0.58403345104990    1.54775345702877   -1.58181392643275
C         1.51231805140829    1.03159188503677   -0.69392741844076
C         3.93301806309703    1.98665882939671    1.61503109405467
C         4.21334519629389    2.95718652128548    0.66444735107658
C         5.33861663580021    3.75606935347841    0.78931790090936
C         6.19893959934267    3.59111152739110    1.85962825936120
C         5.93296707414141    2.61493591206122    2.80684707535134
C         4.80930906762840    1.82125598122384    2.68405588110760
C         1.10938174968144    1.93435321345752    4.64595357280321
C         0.27443865915083    1.35400488289269    5.61853686219078
C         0.50340653188328    1.53145977828105    7.10581579501920
C         1.36064249125385    0.40362159658941    7.70218778593945
C         2.30267504537145   -0.20469755959636    6.69378180055152
C         3.16017594880654    0.51630774212168    5.88441402773184
C         3.29576567173801    2.02150857804516    5.94913538522531
C         2.33549055667522    2.75161187826090    4.99073534427880
H        -2.42391731463411   -1.10020466192636    1.35056916380592
H        -0.12226362455661   -1.54023817722422   -0.07309234620425
H        -4.18161731511449    2.25177336936773    4.50092874350347
H        -3.15776404689024   -1.11406394116665    6.89318792890148
H        -1.56735768126822    1.63259196986232    1.99406211343715
H        -1.34574271498631    3.27604558753550    4.22270884327311
H        -1.55468072325745    5.68329885415477    4.62966436653200
H        -3.11876904524517    7.03924620857447    3.27883030643743
H        -4.45768809797932    5.95250567041471    1.51187701507367
H        -4.24123565655018    3.55014080161499    1.09702921594938
H        -2.13430570445005    1.42213045036965   -0.25460037218786
H        -3.67220429997757    0.60694373437278   -1.98602049592366
H        -5.97279318266341   -0.06571179126425   -1.38391933452397
H        -6.71430518662685    0.09280116155361    0.96515513606408
H        -5.17953512312234    0.91185251471880    2.69240009034586
H        -4.39575267538085    0.76715991166469    7.85670991210940
H        -5.71045568546896    0.61781261285163    6.69465386036393
H        -4.85328964258698    2.15039833773191    6.84750678572941
H        -0.28455560762909   -2.00985302355212    5.04988953271843
H        -3.66070920433027   -2.53364928387410    3.69801093796796
H        -4.24926750164098   -4.37221007916933    2.18129678677488
H        -2.65753724469449   -6.21863540856420    1.79037236294013
H        -0.43790072757679   -6.17394043104532    2.87654953000826
H         0.15904928173676   -4.31829529708890    4.37692798550143
H        -3.51818232303701   -3.52310719890162    6.25905197776704
H        -3.70758892286090   -4.58334776312984    8.46874489599430
H        -1.77419508645176   -4.60784756509107   10.00142282350066
H         0.36070604922548   -3.58849822181433    9.29527564215673
H         0.54620719285712   -2.53565219579704    7.07626858565179
H         3.95334868534214   -4.01212144872220    0.44910093257571
H         5.10494835696236    0.07168394554005    0.71909809424180
H         0.60624218596875   -3.54478031918152    1.79235656019406
H        -1.19351658469515   -4.39686469772710    0.50328963649213
H        -2.32814221072075   -4.54257043337999   -1.67022375337561
H        -1.09388333912590   -4.03053614833087   -3.74954682732047
H         1.28490204089746   -3.38171270258680   -3.62566706920512
H         2.41799285382028   -3.24642864904967   -1.45641358196894
H         1.50083055381703   -6.10192452466973   -0.45378960005035
H         2.43430070090498   -8.25545918865801    0.23222634011247
H         3.42815575749344   -8.52816862085386    2.47536440704710
H         3.48266325771442   -6.60314090922155    4.02670850685714
H         2.55444946392293   -4.43569209104951    3.33338248597385
H         6.08636097161974   -3.21191151166094   -0.53931935048831
H         6.65377027382586   -2.69562950289421    1.04487037258560
H         6.60375111093281   -1.53528012754458   -0.28203494072404
H         2.26216166202359    1.09987375128810    2.54107136174504
H         1.07327276621046    3.20162642589282    1.84902062475162
H        -0.59015562009892    4.10049579153277    0.28989153187911
H        -0.89533789696995    3.05844289523276   -1.93083747239106
H         0.45717874157742    1.08624907980720   -2.55048743175001
H         2.10841337935344    0.17723716772999   -0.98094967823236
H         3.55359117716023    3.09355441221743   -0.17990829825825
H         5.54323177208795    4.50969266653153    0.04266476098421
H         7.07483514206293    4.21589122087087    1.95443700861013
H         6.60495921224249    2.47415490512625    3.64130691812362
H         4.60428943660706    1.04984676785705    3.41039458955258
H         0.97264150087907    2.50110149106750    7.28294874168683
H        -0.46456380125591    1.54420394882630    7.61111501344235
H         0.70061048512235   -0.38150154021842    8.07597581651186
H         1.93750247639785    0.77539327232765    8.55652153851165
H         4.32092674392757    2.29915850148328    5.69707679050883
H         3.11874528970121    2.34320253953641    6.97723655341239
H         2.02128801190452    3.70509019493223    5.43120591441271
H         2.86655976646983    2.98977772190883    4.06642716473463
H         0.62303184484118    2.26946608059930    3.73103538544530
H        -0.77417377902279    1.25208025493129    5.36558426708895
H         2.57316012528072   -1.23540093382301    6.91181764520844
H         4.03101566677124   -0.00730652519525    5.49511352549298

