151
CSD_code = BOHMAO | q = 0 | S = 0 | Stoichiometry = C77H68ClIrN2O2 | MND = 6
Ir       12.24074837645612   11.17541429960017    5.49630706681027
Cl       13.29030075636292   11.50625212593714    3.44449926705172
O         6.05548260290292    9.14349373815540    6.46678079387120
O        16.85202183751797   15.58775609093447    3.60277032560004
N         9.76929807169548   12.98507740775870    4.96099708655963
N        11.59171950387822   14.07639101693504    4.63405358522201
C        11.12125562511449   12.86133702160281    5.02449108148242
C         9.41005614837022   14.24572667092283    4.55953708014983
C        10.55355594535934   14.93343728174266    4.37259226781997
C         8.80598229215289   12.00026086384577    5.29996946352384
C         8.00088030505231   12.19338758548304    6.42974989065826
C         7.08833720240097   11.21172800987287    6.77471261159332
C         6.96732775459351   10.04731458046096    6.02015943722554
C         7.75100780137624    9.88460892187308    4.88496444639505
C         8.66369884112821   10.85776793455656    4.50578676332223
C         8.08864187639565   13.46183364351426    7.25107856287379
C         7.13846223318683   14.50595855553987    6.69940464384416
C         5.85415108421184   14.17433419248064    6.28589281397461
C         4.99720324463179   15.14863020240059    5.80393451060241
C         5.40968988557699   16.46797019619646    5.73059615220345
C         6.68739004688727   16.80733127104437    6.14195293091771
C         7.54462847096947   15.83341986266840    6.62166504932247
C         7.84500616769979   13.20456916917652    8.72770680355199
C         8.56292131793091   12.19915593286435    9.36713193223369
C         8.39635895523663   11.96090210414056   10.71822072180853
C         7.50906121439902   12.72635952452369   11.45627996258598
C         6.79362028314306   13.73039460246993   10.82968551695534
C         6.96103426232502   13.96948624274980    9.47561523547481
C         5.88873020624317    7.94378374162179    5.74945459571173
C         9.50905375786371   10.70857434875525    3.26312111504348
C         9.19095434177495   11.74850808300437    2.21087925288508
C        10.13391567321907   11.99224704089552    1.21830392835539
C         9.84365785370751   12.84199471741100    0.16707016725129
C         8.60883499295079   13.46871717198812    0.10249097559132
C         7.67439336420153   13.24921276054936    1.10000293283280
C         7.96111952800812   12.38916542957429    2.14664335101047
C         9.40077029253535    9.35538833995346    2.59853507116346
C         8.24385648401279    8.97348114346478    1.92714369570216
C         8.16109844482151    7.73355910513331    1.32002859386014
C         9.23747980391998    6.86296096677269    1.36531625797146
C        10.40160675301874    7.24657033994120    2.00793614503250
C        10.48227230400651    8.48696848533030    2.61669147595801
C        12.93449760211545   14.46284493812616    4.35479559807435
C        13.86877912929830   14.59259882949127    5.39032739728340
C        15.15821400060180   14.98815036488205    5.09506133955664
C        15.55022582568840   15.23818406223426    3.78212954815526
C        14.60679398455734   15.15325075699263    2.77061363439102
C        13.29476944875439   14.78725987766950    3.04420079976116
C        13.43508785999464   14.32955813036539    6.81557142116132
C        14.60730474152357   14.27087300177522    7.76970697448224
C        14.83941071026081   15.23923753248193    8.73515873990937
C        15.92526608362965   15.13124255932009    9.58899932011158
C        16.79341005533286   14.05966226883965    9.48510655153800
C        16.57523739469484   13.09406494061164    8.51530948137192
C        15.49097771147066   13.20045756420184    7.66629984162685
C        12.38436253283885   15.31436823218545    7.27394265480975
C        11.55217265661870   14.98070241069224    8.33785707958015
C        10.60099922121586   15.87009030817640    8.80271413491478
C        10.46912341007867   17.11545678536833    8.20928428246990
C        11.29502778474472   17.46006633370826    7.15298411905494
C        12.24720400606711   16.56787942788807    6.69067322495516
C        17.31497375459032   15.78417084378473    2.28811442663753
C        12.29114955299975   14.83013893460134    1.91173812217206
C        12.92972163673208   14.47247980777440    0.58021757666625
C        13.50158322575291   13.21247601190196    0.43485078524520
C        14.07911072716585   12.83637030388804   -0.76315074480616
C        14.09437119714101   13.71211896684954   -1.83669048724722
C        13.52968250092667   14.96697408947956   -1.69869080858829
C        12.95110277928448   15.34619821106135   -0.49804299183775
C        11.62740579043122   16.19092186464316    1.84799538197030
C        12.31364908798574   17.35925938105932    2.15865593232478
C        11.68831777486992   18.59097725108970    2.06618110037664
C        10.36861953797258   18.67532531254466    1.65805292607849
C         9.67727466554018   17.51722031435666    1.34394235465708
C        10.30140064136989   16.28690976427457    1.43871504405856
C        13.89858771158282    9.99026030591520    6.24575761330376
C        13.07759088837670    9.17455017471136    5.48916835124141
C        12.11839973478197    8.16011333131483    6.06046038180147
C        11.20784680181767    8.75497299886159    7.14665339830859
C        10.97859110230192   10.24061104234537    6.95444672402620
C        11.78129916018677   11.21794206343481    7.57118929081759
C        12.97107962517740   10.87897728275631    8.44266310589891
C        13.96879327458134    9.92678640154972    7.75554405352915
H         8.38926264788294   14.53486606399393    4.43014832019396
H        10.71298090303453   15.95252175981629    4.09434169555463
H         6.47075270566232   11.31950943023875    7.65227283186737
H         7.66454780701859    8.99464332019235    4.28515919042291
H         9.10799367274380   13.86258267120247    7.17181307043083
H         5.52023656878226   13.14916229846933    6.33942448810391
H         4.00170849489668   14.87496670418723    5.48602071010575
H         4.73924871154438   17.22678976199095    5.35528155125917
H         7.02048902644411   17.83332153381854    6.08824327902544
H         8.54214433393166   16.10376307682051    6.93583960490771
H         9.25169897268058   11.59240916139299    8.79981115353526
H         8.96179783192142   11.17463452132757   11.19658213391957
H         7.37721326815447   12.54124366596968   12.51201368580535
H         6.09946646220184   14.33463732168563   11.39553908573244
H         6.39619912682182   14.75981532127016    9.00415968986867
H         6.81485318086885    7.36126695827840    5.71799834037473
H         5.54385823602205    8.13004739162730    4.72740784117111
H         5.12800753874211    7.38249119557139    6.28939335042539
H        10.55968830267756   10.83692138413017    3.56404293606252
H        11.09747697273817   11.50812466718505    1.27242783433788
H        10.58421041929952   13.02110707251994   -0.59860443280596
H         8.37767607365052   14.12716040935033   -0.72242263635026
H         6.71322114873946   13.74181898926726    1.05991985156846
H         7.21875573520462   12.21299347021193    2.91336787486034
H         7.40717519122723    9.65600640322706    1.87367045631644
H         7.25542618747930    7.44673102634928    0.80486532623924
H         9.17138178194896    5.89492478193453    0.89069851054345
H        11.25143144184188    6.57979051663230    2.03062226970050
H        11.39760793113892    8.79645746690922    3.09669751097959
H        15.89328102648428   15.10570660038106    5.87425860301814
H        14.87079490595681   15.36770654618226    1.74755867228554
H        12.98281207225422   13.32677485132612    6.81381914061339
H        14.17292841146855   16.08447449244855    8.82461082490131
H        16.09309314844292   15.89219915833015   10.33734133765269
H        17.63886404529469   13.97835188629492   10.15225203675945
H        17.25405394780942   12.25852495816942    8.42218367822929
H        15.32462075325499   12.46018907746897    6.89895502711078
H        11.66275767422489   14.02141165375314    8.82225388583545
H         9.95942238227336   15.58902445689453    9.62570056767373
H         9.73083447946869   17.81454058527765    8.57426360233470
H        11.20210356804204   18.43098656472445    6.68814583614186
H        12.89613821852974   16.85269742432607    5.87507570769711
H        16.82770603200281   16.64202333360522    1.81259301465937
H        17.16057415680292   14.89341407876617    1.67144421393006
H        18.38178199177162   15.98267978226111    2.37802995845921
H        11.51681772779311   14.07641604256727    2.09605986840813
H        13.49916132804868   12.53259912235159    1.27260165511469
H        14.51788701878846   11.85401142830179   -0.85933811332685
H        14.54364617287870   13.41849443022119   -2.77442453764525
H        13.53693512270521   15.65912820721555   -2.52879595884945
H        12.51463086596735   16.33060029002930   -0.41131561387865
H        13.34405518490589   17.30847920339876    2.47853088807338
H        12.23713589116352   19.48869335535749    2.31217775956310
H         9.88262049664751   19.63702758927205    1.58452076947925
H         8.64677024015850   17.57120485845801    1.02451966782857
H         9.75616422191403   15.38669798921197    1.19792604518690
H        12.68566906039137    7.31274635212314    6.46182615819578
H        11.49727863821244    7.77639810567566    5.24870798552798
H        11.63457570064946    8.58381524336320    8.13670264672436
H        10.24324434953002    8.24367764532127    7.11954759665984
H        13.48565076606957   11.80575251245668    8.70581212635129
H        12.61666050253383   10.43549765590288    9.38044366340117
H        13.78494672974157    8.89752066499289    8.06969299200613
H        14.97912671145414   10.18555414420856    8.07757439362359
H        14.78921309687009   10.38441422610930    5.76021387392300
H        13.39461181111477    8.95424355794504    4.47225010338574
H         9.93441207601221   10.48818262253155    6.80295187271745
H        11.27550755885857   12.13039725014354    7.88283128424180

