69
CSD_code = BOHRUM | q = 0 | S = 0 | Stoichiometry = C24H36Cl2N6Pt | MND = 5
Pt        2.29019340771551    8.70741431300433    1.64953682538953
Cl        2.18764271341248    9.15200154459034   -0.65394748249075
Cl        2.40129607850583    8.07050559875656    3.88811215356918
N         1.66174227230487    6.82558134006490    1.19241741511995
N         3.56695415849599    6.12337202377390    0.06201910683079
N         1.51777243564720    5.27112108975915   -0.56526688729060
N        -0.47888083340203    2.75901528934955    1.07574772353509
N        -1.34232691763841    0.87462760682378    2.25075073866582
N        -2.25516892480663    1.58381383969310    0.23902209138937
C         0.40565046579010    6.55609957306972    1.75674530847993
C        -0.51431206545594    7.60151687363520    1.85277844023651
H        -0.24042737003712    8.57945173780372    1.45840796705185
C        -1.75910116128707    7.40427170943659    2.41461565721451
H        -2.45610328762546    8.22618660418063    2.48079719498080
C        -2.10689270173163    6.15055722953700    2.88936067517822
H        -3.07843827913666    5.98558709711017    3.33110670130686
C        -1.19627995706892    5.11379961335675    2.81549709143085
H        -1.46243929170958    4.14518298045451    3.21195118569741
C         0.06800300497078    5.29068698739667    2.26528122623386
C         1.04686506428539    4.18842117355924    2.26422747570845
C         2.29176457037665    4.37977445725869    2.84799122630970
H         2.49573000680471    5.32620207462943    3.32725825594922
C         3.24346257661742    3.37610499587605    2.85099841156040
H         4.20613923128868    3.54422445623159    3.30999686323967
C         2.95141271455118    2.15601443392435    2.26392234300771
H         3.69263415887651    1.36923532021929    2.24593973773176
C         1.70513118004860    1.93316639103051    1.71392086801664
H         1.47079743719593    0.98216561429194    1.25317227612849
C         0.72663757674320    2.93202323123271    1.72165786939125
C         2.21757100260087    6.09442307815049    0.25404168616245
C         4.44702059740975    6.64647996462969    1.08329179005798
H         4.59223387986215    7.73409448831614    0.98759510626127
H         5.41795072656867    6.16095391486451    0.97035305299492
H         4.05446633151636    6.41538826978651    2.07171309135056
C         4.10872995563423    6.25314775051626   -1.27557214234721
H         3.33075891079977    6.11415242479452   -2.01856769112510
H         4.90594291754465    5.52420239909319   -1.43568680121657
H         4.51539742582751    7.25988269197604   -1.40714021775347
C         2.07247854413108    4.04082411523501   -1.07794691523499
H         3.03303835783190    3.84192036801701   -0.61112776045142
H         2.19335436259564    4.07730104763258   -2.16469948939299
H         1.39100915861943    3.22447277115133   -0.83119562269093
C         0.11808584859803    5.46624618322767   -0.85910630802159
H        -0.51257674812930    4.81778545405114   -0.24433900739714
H        -0.04345261976845    5.22718565848839   -1.91268430685786
H        -0.15348903689977    6.50626638645190   -0.69718369416957
C        -1.28757490233210    1.77848911771280    1.21066940975045
C        -0.69759650717858    1.11434341938291    3.51691243169231
H         0.28961642048414    0.64064965816513    3.57938300502446
H        -1.32980558461027    0.70538893387344    4.30980421554885
H        -0.57559911991924    2.18083926938837    3.68442307392543
C        -1.66210889700052   -0.51383377550246    2.01188220227858
H        -1.97462827461110   -0.65328851810424    0.98100744662649
H        -2.46003491760617   -0.84927473146865    2.68119496909622
H        -0.77918571107158   -1.13606607664661    2.19947138388130
C        -2.10788191686751    2.33678806909561   -0.98536281446621
H        -2.42870967010649    3.37868712002754   -0.87346504623134
H        -2.71359479628366    1.86029950721567   -1.75671347512303
H        -1.06374711354817    2.32509732889388   -1.28676281919588
C        -3.63832514239759    1.44831596008193    0.65101687076960
H        -3.69775277636033    1.06677844673738    1.66544875633919
H        -4.15524873374875    0.76060015418265   -0.02142460763737
H        -4.14920422296346    2.41805005955506    0.61560434661981
C         2.15888756458253   10.77913009603544    2.15513782568965
H         1.66525148921527   11.31197041205610    1.34650664670631
H         1.69561801329778   10.86245184715914    3.13497432960400
C         3.49179144109091   10.43391120380536    2.04503878657210
H         4.04669527148086   10.69721776085858    1.14826823523332
H         4.08406020799410   10.25100257106777    2.93732159756105

