92
CSD_code = BOHSOH | q = 0 | S = 0 | Stoichiometry = C44H42ClNO2PRh | MND = 6
Rh        5.08462407811369    2.37947006836871   12.05482159822586
Cl        3.66940761177007    3.93740361148511   12.88887839661041
P         6.23345355302841    4.24105914853239   11.46474087053521
O         7.58336204116873    3.86353592919403   10.57043052233446
O         5.40976663499779    5.09682428086282   10.36695083851814
C         7.23165143917527    4.73152968614529    8.35594254749960
C         8.01118778209412    4.59476739781963    9.49021580537304
C         9.30402228643214    5.14497774892372    9.54844778510593
H         9.88312455032058    4.97294619372804   10.44106108935329
C         9.79446670270964    5.86612187849625    8.50055590873147
H        10.79344726032851    6.27501530058107    8.54062147420197
C         9.45652527043843    6.92996644825903    6.30625892521114
H        10.45362381883974    7.34225119876362    6.36920453922999
C         8.65697353348558    7.20138531696861    5.23206454883208
H         9.01389780958174    7.82678991664504    4.42718725744657
C         7.35642033213160    6.67939974681899    5.17879668145006
H         6.72204853767969    6.92038898240411    4.33862183667839
C         6.88681475910263    5.87738978352082    6.18150707686225
H         5.87906716889131    5.49326489832028    6.13728475597126
C         7.69632847076837    5.55532696342074    7.29236187709304
C         8.99775546218778    6.11839423352277    7.36411189186963
C         5.91879756832531    4.05878071083421    8.29001511632408
C         5.02264334415671    4.27555461538095    9.31267000557369
C         3.75147304891105    3.68138026592678    9.33922112073073
H         3.09080018750408    3.90875447537469   10.16352591680340
C         3.37287904296793    2.86930675207015    8.30687943230185
H         2.38960028068508    2.42232301204723    8.29635440076527
C         3.91046733271438    1.68781349438497    6.21682773253609
H         2.91749499684930    1.26121468029250    6.22284255943021
C         4.80059302632456    1.36393152109871    5.23218609347438
H         4.51913489140678    0.68294999309807    4.44267423246393
C         6.09500702786986    1.90336915450590    5.25185408754112
H         6.79972402303222    1.62016139912023    4.48410643742965
C         6.46846192302870    2.77795995044002    6.23416201745088
H         7.46958745960598    3.18086991059599    6.24889595867290
C         5.56280388321618    3.15845213912903    7.24684097877282
C         4.26669341539864    2.57531113736954    7.25404427894269
C         4.33685148741836    0.88076200995429   13.39066685277299
H         3.87118006283377    1.40267574786123   14.22792818063000
C         3.62427534606372    0.79082165190004   12.20801806969563
H         2.64608621797534    1.27029448482193   12.17374564826597
C         5.88267577135771    1.07011670888973   10.58396020872190
H         6.32464787055255    1.65109344300834    9.77443637841198
C         6.62986003520335    0.93390625151196   11.74978830179759
H         7.59487216032162    1.43478399009159   11.76363054024782
C         6.51089424456294   -0.25695442733555   12.67895907640344
H         7.48135828427990   -0.44463603893323   13.14324249773661
H         6.26091787613471   -1.14108571197901   12.09015793550699
C         5.46556334432934   -0.04078805476146   13.79241658508647
H         5.04646186170438   -1.00364299233322   14.10490618923452
H         5.95961386644214    0.39155168699717   14.66668920507284
C         3.83301173810526   -0.31302085448506   11.19541812360727
H         2.87725531945042   -0.54850866322612   10.72325247928985
H         4.16661791136939   -1.21255543789172   11.71541408319277
C         4.84273164440238    0.08510296973582   10.10348863828069
H         5.34899656167733   -0.80523522253798    9.71333903129007
H         4.30713690380287    0.54164186439935    9.26833607569048
N         6.68772322009424    5.48773384537657   12.47028256700920
C         7.38477378555416    5.13332714532541   13.71066295026997
H         7.61026061820567    6.08163735871126   14.21225081791889
C         6.54023375891820    4.27898284577561   14.65493544183308
H         5.65301769653497    4.82419535226797   14.96360021050172
H         7.12301147289403    4.01724133543766   15.53615788019311
H         6.20433803528901    3.36299440390980   14.15710674626523
C         8.71647233326143    4.49762116061050   13.37315400212757
C         9.77450966250975    5.32254817065658   13.00587236703206
H         9.62571867898368    6.39219007942961   12.96491147063425
C        11.01140325907838    4.79064902001830   12.68651928153246
H        11.82182563347534    5.44871665262933   12.40630057906519
C        11.20934302961183    3.42052844905631   12.72547445568569
H        12.17282704417686    3.00252356986266   12.47299848606418
C        10.16430044623174    2.59283756368923   13.09495202307917
H        10.31301361245212    1.52305184594382   13.13416599680004
C         8.92979556105476    3.12707103213151   13.42352924171234
H         8.13591974089510    2.46624665625872   13.73274124797019
C         6.13901408701945    6.84432403232169   12.36986278739085
H         5.56242448258045    6.86546494139811   11.44266044694708
C         5.17539058556867    7.18800765042193   13.50168336737893
H         4.36517669437549    6.46229348468556   13.50325240674296
H         4.76008249368115    8.17850261453618   13.32989608309915
H         5.65326470865682    7.17649652579323   14.47733163815649
C         7.29906186469223    7.80000755497409   12.19645578622829
C         7.82595222187761    8.56656062235382   13.22759557725114
H         7.37184500632893    8.55554295216551   14.20692399119310
C         8.93836658307340    9.36474753173011   13.01296056511673
H         9.33856414307637    9.95289696768276   13.82637183909105
C         9.54001299527204    9.40638450249972   11.76776462838795
H        10.40934105264953   10.02675335049441   11.60586428941992
C         9.01533590882111    8.65419926837623   10.72934335732094
H         9.46883701193856    8.68474674590247    9.74940615407824
C         7.90395409002189    7.86255924512316   10.94495625722290
H         7.49544941797831    7.27775017228768   10.13339436198880

