44
CSD_code = BOHSID | q = 0 | S = 0 | Stoichiometry = C17H16BrMnN2O7 | MND = 6
Br        6.62647519395745    1.27104032802275    7.77923254096006
Mn        5.03573122007533    2.10721944545349    9.43985450317961
O         6.08472518491405    5.03982541723504    9.35154499012485
O         3.14269373150167   -0.37190869213765    9.36140824385445
O         7.25548443146509    3.04796734567543   11.09985569647364
O         5.44634443088394   -0.26436333749262   11.10610046754949
O         3.15373204656746    3.13931570566073   11.42022836959095
O         4.60034651027933    6.37507798821722    4.95342606976114
O         1.18016234843256    0.15093762210618    4.97956009366092
N         4.78235462774068    3.72465477178223    8.10904790335674
N         3.54111819852978    1.43125142267874    8.11157938627721
C         6.38438630288264    2.73538388146262   10.41488953948431
C         5.24072832489136    0.63409422424613   10.41597294502425
C         3.87190543457483    2.74255030354728   10.61037794490219
C         6.97989151932158    6.11584379916617    9.53358412531636
H         7.74879397838655    6.12915451010686    8.75613370221611
H         7.44852886823609    5.93623725716486   10.49954829497746
H         6.45258991713550    7.07441755104014    9.55752901226696
C         5.44045900762794    4.88287439076500    8.18896955396298
C         5.43687236364658    5.82863180799933    7.16623260452010
H         5.99434000061690    6.74187171912598    7.27702858049475
C         4.70247987086507    5.55989076351598    6.01635842886172
C         3.99601654427209    4.35627992309361    5.94677042100964
H         3.42950371674931    4.14906975042836    5.05722666107798
C         4.06155033722744    3.46564625677967    7.00298371661098
C         5.30933950106880    7.59510555416818    4.95548968481652
H         5.08447996837933    8.06548980125504    4.00026858583647
H         6.38758344622670    7.42919056442581    5.03274695886963
H         4.97690120037105    8.24864099023740    5.76763638885644
C         2.71121941502047   -1.70217221511925    9.55256258791204
H         3.10439171143510   -2.36336348469838    8.77530391024814
H         1.61930917325196   -1.76744454073633    9.58461516169394
H         3.11988820976897   -1.99838446776786   10.51703250465057
C         3.35875688290845    2.17678608462691    7.00648137525073
C         2.56347650871939    1.75023324253666    5.95815045086024
H         2.42247481986055    2.33898089036603    5.07009168745056
C         1.93137158714965    0.50646100392307    6.03512725710079
C         2.11077440826178   -0.25450759434578    7.18512097871467
H         1.64084228027907   -1.21492890024939    7.30271299568896
C         2.91942636906593    0.25334312411401    8.19935627294785
C         0.52966696852272   -1.10123025101755    4.99235853891336
H         0.00602733740648   -1.16841924687219    4.04074449211985
H        -0.19521151120352   -1.16590308180323    5.80942140959098
H         1.24736761273441   -1.92284162869184    5.06953496295712

