41
CSD_code = BOHVUS | q = 1 | S = 0 | Stoichiometry = C19H16ClN2O2Ru(1+) | MND = 9
C         6.89290615295863   -0.75041421474649    3.63349833858733
C         7.46670557689741   -0.70696139490766    4.90353546697670
H         7.46851836724336    0.22036298647710    5.46163970660233
C         8.09302510483318   -1.83592345782530    5.41086400437848
C         8.15816500121712   -3.00316852165666    4.65211088661502
H         8.65624280858435   -3.86509918940162    5.06846928731593
C         7.59298344393514   -3.03890541624311    3.38907294918232
H         7.64247778676445   -3.94157772359513    2.80080671033758
C         6.96200420464649   -1.92032186576773    2.87373523260147
H         6.50129867012352   -1.95153424947722    1.89736354583219
C         8.71101807552873   -1.82832936362311    6.76779315791780
C         6.46283269916231    0.84421523139717    1.95773284092978
H         7.14778019231989    0.36442284456927    1.26855539684162
C         5.75431366268711    2.04354674800369    1.63041945001683
C         5.85483285332634    2.75469144665281    0.43149911411095
H         6.50200623140689    2.38776033541051   -0.34855739877955
C         5.13683425134232    3.92388364040163    0.28505402710036
H         5.19920216485703    4.49856591300372   -0.62503978535429
C         4.34207503486221    4.35808569526131    1.34258188129889
H         3.77868435639767    5.27397605704658    1.27267307101180
C         4.28831125855514    3.60612943843816    2.50191976561299
H         3.69779422772830    3.93746097456516    3.34621300569855
C         2.85674866360457    1.09944660043023    4.67446386647073
H         2.02878371625525    1.19266244858461    3.97952441529431
C         3.18937822381260    2.18704513590437    5.52317082006342
H         2.61508170702871    3.10506989552119    5.47627763297169
C         4.21089985038017    2.04629778877933    6.46256820478961
H         4.45953428164255    2.86777238321960    7.12600444994828
C         4.85942192045966    0.79208178969135    6.63075461488616
H         5.59455492874329    0.66904435643983    7.41748265080773
C         4.46674295501467   -0.30303867530008    5.86033942761621
H         4.88491313435683   -1.28310091259552    6.05687410840961
C         3.48597397335007   -0.14846169927858    4.85149183709686
H         3.14472704085202   -1.01266552287902    4.29234210236487
Cl        6.89869623796809    2.82148639821677    4.73999300753658
Ru        5.08072278365396    1.42873101506819    4.33942034521830
N         6.25550448903938    0.39978018397764    3.16034001606321
N         4.96009749278328    2.46847393496324    2.64700528423988
O         8.33731554653812   -0.77021710949864    7.49946575775794
H         8.78994785391452   -0.78787022837424    8.35867340103153
O         9.44544307522333   -2.68410369685361    7.17626740259801

