44
CSD_code = BOHWEC | q = 0 | S = 0 | Stoichiometry = C17H21BN2NiO2 | MND = 4
Ni        6.28051932569373    2.83919096102860    3.30429518703882
O         6.93313083738724    2.12066372382690    1.67327002944144
O         6.71999545574870    4.60131865534161    2.75053721407122
N         5.92851701243879    1.10861580621496    3.93504557519387
N         5.72733671559243    3.49021999592607    4.97269022145718
C         6.84782757639190    0.15106047640549    3.80696121226312
H         7.82720524677645    0.44581986225016    3.44829044317901
C         6.58257654010526   -1.16779720545823    4.11054329888937
H         7.35098453041756   -1.91698815852610    4.00137932406417
C         5.30690550832828   -1.49468736790610    4.55322126446545
H         5.05655635896817   -2.51914690600818    4.78961200938270
C         4.37430661642620   -0.48877849996670    4.68851585953133
H         3.37812411370579   -0.71041542114804    5.03275736527617
C         4.69581795491464    0.83714963997038    4.38057748247523
C         4.50008638034876    3.17107383924851    5.40119700632291
C         6.49390542610046    4.35370873931048    5.63991451581242
H         7.47923008530765    4.55891793797341    5.23765041679858
C         6.06804084760730    4.97352087031846    6.79595372961669
H         6.71599387141247    5.66220512455266    7.31513435135357
C         4.79094660745110    4.68623903143218    7.26145794203004
H         4.41671681044681    5.16023926087306    8.15777181848750
C         4.01782399811724    3.78466604289261    6.56188597388622
H         3.02484888820481    3.53953686068346    6.89939472727179
C         2.25659927515265    1.64296940803573    5.26798798156948
H         1.71724411593378    0.90472803202836    4.67787280847197
H         1.58512433915348    2.49273188784472    5.37362036849418
H         2.40095570956492    1.21970206202758    6.26141077798107
C         3.38376081929759    2.70616753378875    3.05215790507795
H         2.75787560343554    3.59389271148781    3.10058169741295
H         2.88845893413250    1.99059171083188    2.40043459528198
H         4.33376696903188    3.00011954663280    2.55587410179432
C         7.39925535049052    2.74198262669904    0.67934639671490
C         7.55198595929943    4.12665331984551    0.59191260208728
H         7.96064916774914    4.55320240695231   -0.30921727428356
C         7.20451602683609    4.97240032509174    1.64667669258916
C         7.43310157631669    6.45710479887505    1.46781951475025
H         8.48772566957104    6.65321733302765    1.28723968917443
H         7.11200335607286    6.98790890668590    2.36009630513685
H         6.86772471554576    6.81597508680152    0.61096965088503
C         7.83979161323420    1.90468636261784   -0.50126844720277
H         7.59201977775123    0.86142916289257   -0.32337949292237
H         8.91452391612163    2.00175235023335   -0.64244573004753
H         7.34428427627750    2.24795701129689   -1.40611429061480
B         3.65113612113596    2.07439414706969    4.54856717933392

