110
CSD_code = BOHWON | q = 0 | S = 0 | Stoichiometry = C56H45ClN2O3P2Ru | MND = 6
Ru        7.14218234953201   12.84415284062698   12.59100682431570
P         8.57078292947920   14.49168155566698   13.33095350830827
P         5.42469384683976   11.54029086945339   11.79583626232171
Cl       15.82027869636758   11.51064087629199    5.25219359646639
O         5.53794239022181   14.18066605004677   13.04444360308496
O         9.18083070583774   10.67567901458997   12.72773791727922
O         9.43139668552107   12.25761213011334   10.27173086550548
H        10.18580038655533   12.21902271571646    9.62749547525243
N         6.31774977855388   12.79998535785968   14.59908591391967
N        10.91593109308377   12.83314745501330    8.21993246580881
C         8.42631913113762   11.53673659547217   12.58233136228869
C         7.49089064098250   13.54161550310968   10.66776791423091
C         8.61300704897285   13.25019076135802    9.87428042044986
C         8.88302149919819   13.97932705865261    8.69773663860369
C         7.98562205374953   14.98253366058549    8.29574840825208
H         8.20005725672910   15.54117173465201    7.39474308888831
C         6.85086685280669   15.24405649399932    9.02357651278728
C         6.63240430819785   14.52229935559636   10.20487753365999
H         5.73976971381758   14.75711284360076   10.77411589359227
C         5.86732860970359   16.29813927220560    8.60692710137464
H         6.03582554426656   16.60353893119932    7.57680385071354
H         5.96160144694415   17.17889485335740    9.24356477555884
H         4.84880026889745   15.92510199600904    8.70417590876299
C        10.06981881631846   13.75157971136627    7.92845557393624
H        10.23566462878530   14.44217014659174    7.09223572781136
C        12.04947998956239   12.57259427413739    7.48027784395856
C        13.16433332341845   12.07656391841260    8.16273243998022
H        13.10691587087413   11.95311838710735    9.23323754073956
C        14.32274920975058   11.76030624108161    7.48540454880682
H        15.18503271475896   11.38867229627991    8.01673810591753
C        14.37108698019234   11.91443453466977    6.10773084871194
C        13.26784757876536   12.37384197062314    5.40648764053312
H        13.31339608396265   12.47066802816265    4.33266678798589
C        12.11462500553584   12.70304696362304    6.08989410639454
H        11.24611469362523   13.03902743200825    5.54272421938460
C         5.45093544222727   13.78525869628534   14.24762056039510
C         4.53082484050005   14.29857885014589   15.19225686700777
H         3.86784000237857   15.09223163583566   14.88394056955257
C         4.52207812150020   13.77861940920740   16.45881862558643
H         3.82869951788538   14.15427328238898   17.19807620395582
C         5.41430266528904   12.75688645097821   16.79284467896034
H         5.42218832549596   12.32719464114200   17.78128377275026
C         6.28973107809205   12.30583552439667   15.83226142717395
H         6.99633263065596   11.51521086356402   16.05524311787675
C         7.64881851365810   15.93686602671552   13.94262530213538
C         6.87315554674429   16.65698484213483   13.03442477841805
H         6.89419151589705   16.38439513040952   11.98782535392238
C         6.05564296796479   17.67963774083574   13.47544689926426
H         5.45723269671613   18.23414108650670   12.76655757908187
C         5.98546684822570   17.98031454586524   14.82678461627416
H         5.34026531836990   18.77536162603455   15.17160553873155
C         6.72660798771723   17.24593794878062   15.73636924332041
H         6.65623578955046   17.46183905015318   16.79277031236989
C         7.54931161777518   16.22176891111062   15.30054277160470
H         8.10798521518452   15.63822028285650   16.01997204219294
C         9.71600791674518   14.16208594284401   14.71142574060934
C         9.72676295407710   12.92429323069111   15.33902723416034
H         9.04503147196612   12.15694343739167   14.99739504891049
C        10.60668603115058   12.67985706112579   16.37987547621801
H        10.61342673646319   11.71484568012416   16.86522413220866
C        11.47999255135162   13.67039780175895   16.79493260194437
H        12.16646644771624   13.48084918648261   17.60701568417947
C        11.47844263753523   14.90658866859351   16.16568588109030
H        12.16387910120456   15.67727396713716   16.48721331825628
C        10.60283100901568   15.15348043192783   15.12630979259495
H        10.59814088685848   16.11450988846649   14.62888469412029
C         9.78754211995982   15.15276377254338   12.13990761317512
C         9.74623036208186   16.40202465204596   11.53710930583825
H         8.97733333509103   17.11362147966468   11.79852581947345
C        10.70499458710149   16.74898784255662   10.59936567665917
H        10.66116105288844   17.71986562657084   10.12711432770294
C        11.71435688196121   15.86303137687669   10.26855849330285
H        12.45684972435366   16.13610868979453    9.53300465094816
C        11.77500468626776   14.62437239764571   10.88779635790322
H        12.56999856360121   13.93755872019714   10.63968400613347
C        10.81516049151420   14.26864681614216   11.81341250793240
H        10.83876630353883   13.29544818842257   12.28724495401385
C         4.57891413608624   10.54968894897318   13.07817196111296
C         3.20553293103743   10.38889651972337   13.21507106973889
H         2.52501526979683   10.88127359469615   12.53441762863937
C         2.70213935129658    9.59193819832293   14.22963124750971
H         1.63303924180412    9.47650165726087   14.33678275830735
C         3.55854224491838    8.94268902683568   15.10191400595822
H         3.15774416190336    8.32722002791442   15.89381299401557
C         4.93003723891930    9.07799438094246   14.95328618665599
H         5.60048624097220    8.56122147473407   15.62440665103655
C         5.43594676269340    9.87682387309017   13.94693213611508
H         6.50670118282544    9.99450246721864   13.81366563284241
C         4.10960091626977   12.49445602113672   10.97990862310776
C         4.14383539832879   12.63863322858903    9.59478114323606
H         4.89765792827540   12.11491890468619    9.02286144581231
C         3.22827733040874   13.45533786308659    8.95713112908473
H         3.25934242260456   13.55891078337983    7.88201307794586
C         2.28061692748971   14.14630977677387    9.69488409264935
H         1.56775570974828   14.78761629684182    9.19670901797675
C         2.25500685454791   14.02310694415396   11.07454439512989
H         1.52495756927202   14.57180748115232   11.65247078272567
C         3.16741330288534   13.20695975107740   11.71830415430893
H         3.15523309502617   13.13294042893919   12.79723630453578
C         5.70412109518692   10.21591608467889   10.57289215733473
C         6.96454687496326   10.02002563096959   10.02563670240701
H         7.77866999695780   10.66230815882774   10.33021288066383
C         7.16484623656532    9.01336371161469    9.09573868821141
H         8.14654340104359    8.86507935196136    8.67088582727763
C         6.11181172331726    8.20033878929549    8.71306777655263
H         6.26877317053200    7.41434186650942    7.98882955437455
C         4.85197250606670    8.39361245040420    9.25960691674990
H         4.02968004627370    7.75932270690977    8.96130742258394
C         4.64628122330749    9.39685490660635   10.18668589465122
H         3.66417688143124    9.54925545917673   10.61336493713759

