65
CSD_code = BOHZUW | q = 0 | S = 0 | Stoichiometry = C30H30N4Ni | MND = 4
C         3.25656002052924    5.70312641099056   11.37925399229919
C         2.43754142564168    6.14836987238082   12.43818844891554
H         2.76450130234006    6.46112675984450   13.41131973296572
C         1.13199462321559    6.10672834450028   11.98278813159721
H         0.27649429366227    6.38890362293740   12.56558370482623
C         1.14141437010652    5.63360604091660   10.63401168097657
C         0.14475561524496    5.39998384922441    9.64527056920828
C         0.48132985970230    4.93489861994406    8.34630977174433
C        -0.28284225520284    4.63985184756802    7.17454626119312
H        -1.34850197915904    4.71070685696276    7.06602269208310
C         0.59111904178935    4.23974853861933    6.18014263825517
H         0.33140210667753    3.95068790690257    5.17984864470258
C         1.89144595842884    4.28597187942074    6.73075385829014
C         3.30842446199434    4.05862074059949    6.38195679693670
C         4.13181340406845    3.66935563633500    5.30464919712017
H         3.80745744534437    3.38983896130896    4.32063713977952
C         5.43794723108786    3.71843782617761    5.75756838906533
H         6.29639255077458    3.47588957190319    5.16153837320829
C         5.42454526643223    4.14033531006788    7.12314582252059
C         6.42298367780338    4.39494516054916    8.10494795585735
C         6.08482806487519    4.83897938270975    9.41084746326849
C         6.85317727020743    5.18748664069950   10.56509622897965
H         7.92205276357853    5.15731418257783   10.66019923044107
C         5.97861501793649    5.58044704167633   11.56180422720347
H         6.24113433947088    5.90467857961000   12.55054170863802
C         4.67365772265588    5.47604849756942   11.03032109500196
C        -1.30487688398838    5.65787866451848    9.93539683527275
H        -1.88160537696307    5.40709011317771    9.04080759136560
C        -1.56717322093146    7.14047253168248   10.24047833181424
H        -1.01430208468573    7.44522255869813   11.12783984493078
H        -1.21261928257172    7.74566910819494    9.40314288913958
C        -3.05794466517931    7.37475707012600   10.46143269028893
H        -3.23278343412477    8.42746330719206   10.69296464009182
H        -3.60446093432060    7.13990875364586    9.54486271815333
C        -3.57616598958679    6.49713536718814   11.59666510903305
H        -4.64508722374062    6.66702831751960   11.74051115003741
H        -3.06725044396184    6.76717880927480   12.52482778245431
C        -3.32025766558055    5.02496369253613   11.28817692223763
H        -3.68264294745764    4.40289010961344   12.10913454344710
H        -3.87195631903340    4.74330181478324   10.38801841079745
C        -1.83121416813914    4.77229041263131   11.07423584762630
H        -1.66219089650030    3.72384373503168   10.81874211342553
H        -1.28973516311466    4.98070733396340   11.99567599370792
C         7.87905293257524    4.22055543334182    7.78627822821239
H         8.45618120334723    4.46541825948171    8.68223240996259
C         8.33543823184733    5.18174908747816    6.67821768783656
H         7.78851798021867    4.98096714232381    5.75816171599280
H         8.11276150653947    6.20748883675756    6.98069015374822
C         9.83170911912158    5.02283599074515    6.42880395717996
H        10.14181940709369    5.69622018367021    5.62711445884774
H        10.38392743446125    5.30089783398662    7.32967978857452
C        10.16531911725266    3.58117250312565    6.05719145153936
H         9.65796062278699    3.32016226914946    5.12564153472274
H        11.23975546835865    3.47850707019661    5.89211438459641
C         9.71591626868924    2.63032142111306    7.16254488746283
H        10.26358221752859    2.85845459397801    8.08011741320010
H         9.94610175617982    1.59971565592102    6.88476813873357
C         8.21802595069199    2.76963106610177    7.41455524787367
H         7.91228784927776    2.11043398651327    8.23008015100874
H         7.66930824153470    2.47070757480511    6.52288280619520
N         2.45830442058418    5.40711623956443   10.34216856739058
N         1.78035972814498    4.69384615880293    8.00250380763866
N         4.10412055434871    4.32178859468430    7.42980065488414
N         4.78208173075710    5.03379138625636    9.76987776838509
Ni        3.28059135933662    4.85592893022379    8.88876761711029

