65
CSD_code = BOHZON | q = 0 | S = 0 | Stoichiometry = C23H29N2O7PSi2W | MND = 6
W         4.05579340221455    3.30210764269633    7.23043467117970
P         3.35984345713090    3.64489859890145    9.57143588941266
Si        2.04707936482359    5.81828976494136   11.27467629264276
Si        0.52176028442606    2.98830188820670   10.34594709032049
N         3.46059697464851    2.24692780448771   10.44044390309227
N         5.42351181151572    3.29086798005873   11.06103626450111
C         4.50959002478375    2.99569031902394    5.32314528325103
O         4.76617113893897    2.82385176508080    4.22174859665261
C         5.99841091111235    3.38096396798021    7.71661035197397
O         7.11282417959884    3.37139512139241    7.96101804700151
C         4.18312156290107    1.34629913274414    7.64021825254346
O         4.29817250234392    0.24086524821273    7.89758055631196
C         2.12653549896954    3.24307893191789    6.72514745031173
O         1.02915577849583    3.28629624256773    6.40587845998402
C         3.91380566295782    5.25486073643932    6.85075237839052
O         3.77431212818468    6.35883450714731    6.58671683842504
C         4.88482719568815    4.25283849765650   10.38896675935322
C         4.59321644172910    2.19323286256169   11.09263029350184
C         1.77282150780710    4.41722219149699    9.97762559376629
H         1.45857676275728    4.89646624640211    9.04568794873592
C         2.85135324298028    7.26893388401308   10.32450142985084
H         2.12078946094981    8.03565425676473   10.08296247843101
H         3.29388588476292    6.93774090019961    9.38864106415263
H         3.63360434948152    7.73960935579243   10.91264077934645
C         3.10587708166592    5.19860907334119   12.73211514558024
H         2.70434984503310    5.53822488140036   13.68223443760542
H         4.12689889485356    5.56295271266966   12.66418036201106
H         3.14690930013463    4.11343162461841   12.76379977571867
C         0.35800180345744    6.41518663045203   11.92567859428245
H         0.49949388369378    7.28853925445567   12.55351765877067
H        -0.14355958412288    5.66153741834908   12.52217926562951
H        -0.30751676842679    6.69943325311435   11.11785846270205
C         0.70763992053994    1.51564119945293    9.14954803038320
H         1.74398876302826    1.37049410382821    8.85860962110246
H         0.12035730089610    1.65453656686939    8.24671259190754
H         0.36660544321354    0.59720977095930    9.61823058222622
C         0.71263584668833    2.41547994888325   12.15351017791984
H        -0.05088696679680    1.68439309816845   12.39977381254358
H         0.61618060323283    3.23966709442560   12.85275686868445
H         1.67925992527211    1.94994419942131   12.31645734013243
C        -1.21589206458228    3.72190431546573   10.06072677893922
H        -1.95997310684604    2.93709589108723   10.13809330267831
H        -1.31030901331080    4.16284166672098    9.07360764515342
H        -1.46884991660264    4.48272336311344   10.78856619267998
C         5.00782039789560    1.01473682386665   11.82665942410364
C         4.20338241264825   -0.12649395460639   11.82943319737645
H         3.27726231257696   -0.11256017770977   11.27527333030716
C         4.60234150489403   -1.24827950197739   12.52772426911591
H         3.98174743954139   -2.13210418874525   12.52740972192071
C         5.80059457604795   -1.24360449999865   13.22663574896763
H         6.11069421410238   -2.12430985160475   13.76963219805399
C         6.60240704343840   -0.11239583365580   13.22695192101399
H         7.53542114717252   -0.11314793397167   13.77076125764421
C         6.21294256482876    1.01477942898284   12.53023098673320
H         6.82331222310215    1.90398144996782   12.51518925131435
C         5.57231059141515    5.53698889628213   10.17952914682706
C         6.26900305034745    7.09452734649652    8.55277449311902
H         6.06797025115075    7.82512030484304    9.34269117442033
H         5.81574043710016    7.42241401631856    7.61565343335648
C         7.76514352720802    6.87621190146021    8.39565572766508
H         8.19695331777345    6.56009356304634    9.34234736851073
H         8.23698935455680    7.80376382672573    8.08466455715224
H         7.95733526865547    6.11087471890285    7.64742810463695
O         5.99646294156332    6.22269666622771   11.07375440325814
O         5.60369470375151    5.86763308565523    8.88359696470558

