77
CSD_code = BOJBEI | q = 0 | S = 0 | Stoichiometry = C36H28N10O2Zn | MND = 6
Zn        1.54951536022438    1.85719438357883   11.78862296065699
O         1.99565230468742    2.46958516924327   13.72979695913813
O        -0.38166690093381    1.22530370204048   12.25128235881931
N         1.92309370585924    4.40857264940844   14.95959510667589
N         1.48635320564370    4.51425251500453   12.76755342970415
N         1.29460877792219    3.83255753448360   11.65829838557099
N         1.08309781733991    2.12431223608860    9.71844350063461
N         1.38931616253918    6.28182305657450    9.09368348275955
N        -1.43183864431750   -0.72633920015574   12.85644292438955
N         0.72914208330173   -0.80760106048796   12.28309801183731
N         1.79953239924477   -0.11526597087361   11.95600501011902
N         3.61150081445896    1.60928131451502   11.27388006085708
N         4.08477322510796   -2.55666867263152   10.77249500506912
C         1.80694499435586    3.69576297427395   13.80195112668146
C         2.19421731023465    3.97853179776961   16.25251556143460
C         2.42008860470452    2.64148229264765   16.57177024432895
H         2.38847089255903    1.89988305386872   15.79154234026754
C         2.67753317961782    2.28152466077077   17.88150012858536
H         2.84897712295811    1.24193505255781   18.11938592691376
C         2.71575831906653    3.23452604839761   18.88540311680707
H         2.91635101425383    2.94436547415916   19.90577354289520
C         2.49249108616713    4.56495509332227   18.57062899389883
H         2.51908129483869    5.31718543760522   19.34550344828790
C         2.23356352334520    4.93683426876986   17.26623006080994
H         2.05807061182456    5.97567640576739   17.02283651314993
C         1.04035950179079    4.37099827916132   10.49876619053227
C         0.96361593403767    5.82060719981826   10.27216084392069
C         0.49358040388072    6.68292766273746   11.26831333307774
H         0.14762110723825    6.27784379119361   12.20353658960120
C         0.47911541194476    8.04294938851063   11.02296893234378
H         0.11496592259370    8.72973514503612   11.77414249848938
C         0.93609933871942    8.51424064807737    9.80099737466794
H         0.94695816444605    9.56868456650007    9.57254095578358
C         1.37541686076858    7.58187440509620    8.87419883690094
H         1.73559006854799    7.88819727219540    7.89947330280510
C         0.85328519109430    3.41173709115716    9.41760456230709
C         0.41953095858969    3.77520148784725    8.13705466073155
H         0.24141743205207    4.81270578272684    7.91141553143679
C         0.24183974401304    2.79769059991047    7.17993071782487
H        -0.09304273724606    3.06193299711479    6.18744675345892
C         0.49447267959387    1.47186256071340    7.50853327132903
H         0.36914349104146    0.67963438057213    6.78803867325169
C         0.91181929161217    1.19289275155938    8.79793371837937
H         1.12202930912352    0.17831796646855    9.10938878099947
C        -0.34963561195951   -0.00093533619397   12.45077230826057
C        -2.71690384811689   -0.31165961979732   13.18298790946568
C        -3.11940664261307    1.02048916850073   13.11986759199690
H        -2.41412634201663    1.77058093420318   12.80413528214775
C        -4.41299278214235    1.36479569114252   13.46533117061255
H        -4.71496993372644    2.40065974695397   13.41508351189010
C        -5.31938436775106    0.40085469223054   13.87370722216400
H        -6.32748452691897    0.67875293915830   14.14222723002099
C        -4.92214703993900   -0.92476004385536   13.93639373642361
H        -5.62031687509305   -1.68545906811445   14.25403377943409
C        -3.63252978677353   -1.28102436375768   13.59472053316280
H        -3.32398852545589   -2.31611911753939   13.64580018533056
C         2.95875313121918   -0.64209019457229   11.67738216357657
C         3.21510189344265   -2.08896768075055   11.67103339435511
C         2.54720372736373   -2.94261292058306   12.55534047894877
H         1.86068530095592   -2.53223114965022   13.27559340650422
C         2.79250422080273   -4.30097005191392   12.48698375217821
H         2.29402388827478   -4.98089190274560   13.16356361658286
C         3.68736620370228   -4.77941338849592   11.54121245372149
H         3.90141482391895   -5.83306209365824   11.45088339137205
C         4.30611317676587   -3.85523201695705   10.71407019730767
H         5.01933256858030   -4.16732200085376    9.96070320409328
C         3.99764372137027    0.32631077732946   11.35066776739019
C         5.33984800306973   -0.02369771912479   11.16044499534517
H         5.63243552552623   -1.05793005795278   11.22263035154516
C         6.26327019194619    0.96224644711061   10.88047356142544
H         7.30264917208161    0.70826427233016   10.73151108285432
C         5.84168572314184    2.28315995061705   10.79606948643558
H         6.53225076989010    3.08170041368762   10.57721508132751
C         4.49988972457420    2.54876227088957   11.00487317725247
H         4.11614055444401    3.55894859799328   10.95148160431682
H        -1.23696180602171   -1.71383300358140   12.95742765766440
H         1.75158942862005    5.39828163483933   14.83979498675825

