51
CSD_code = BOJBAG | q = 0 | S = 0 | Stoichiometry = C24H22N4Ni | MND = 4
C        10.91838884424306    4.84380594284409   -0.08222757164361
C        12.16287838556706    4.79813454131891    0.58586764191766
H        13.03691630739787    4.26044516786559    0.27182706912266
C        12.04062283487612    5.57812667083991    1.72118499439780
H        12.81902513859744    5.74474437425635    2.44148671155448
C        10.71305282263969    6.10913953912884    1.75557398814411
N        10.09899015815904    5.62257115079935    0.63701428557439
Ni        8.48210301905523    5.82806432944305   -0.00000776563812
N         8.00075270419117    6.87038653639871    1.33137475601159
C         6.73888703932017    7.32340569295455    1.28279007206663
C         6.53118767157807    8.13840084698827    2.41574532228119
H         5.62679338356141    8.65442479314341    2.67560159437179
C         7.71629745924103    8.14653518237161    3.12910916753300
H         7.87058597193149    8.68301106189939    4.04551521782815
C         8.66411483559616    7.33202612533169    2.43489215732134
C        10.01845142440286    6.95711009655456    2.65729818240784
C        10.76649015669688    7.45129008708909    3.86659760333717
H        11.77653670174525    7.03462583063849    3.83134889854766
C        10.90253554368094    8.97716784625187    3.84674072860918
H        11.49728622508491    9.30337609420343    4.69732086075312
H        11.40138621553122    9.29524996122288    2.93373624921812
H         9.93381764137125    9.46357766373655    3.89279878534473
C        10.11526339048135    6.95623139709804    5.16197328491728
H        10.72018901441525    7.25727800399289    6.01452157678588
H         9.11618695925029    7.36031488936175    5.28534437631558
H        10.04608480988525    5.87067478125278    5.15354594593991
C         6.04582499779185    6.81233130200474    0.08220527117554
C         4.80133504965187    6.85801088348427   -0.58589344463739
H         3.92729847935496    7.39570292720693   -0.27185215268632
C         4.92358819429863    6.07800328657462   -1.72120173880432
H         4.14518544723254    5.91137907254456   -2.44150001067811
C         6.25115945325080    5.54698448816848   -1.75559304085505
N         6.86521717595368    6.03355561385134   -0.63703048501575
N         8.96345580346408    4.78574158182780   -1.33139020692979
C        10.22532731816969    4.33273064425791   -1.28281215916535
C        10.43303195107613    3.51774805160450   -2.41577279933926
H        11.33742847364249    3.00172835711009   -2.67563249712205
C         9.24791652472683    3.50959643075249   -3.12912701461828
H         9.09362943523733    2.97311731194382   -4.04553132864969
C         8.30010053308763    4.32409966789108   -2.43490834167306
C         6.94575895409775    4.69900620454058   -2.65731048885329
C         6.19769775608825    4.20477809804000   -3.86658089871650
H         5.18764790966258    4.62143887836790   -3.83133534820785
C         6.06165621588879    2.67889849351242   -3.84667023674396
H         5.46688958109202    2.35267044601091   -4.69724072809616
H         5.56281846092689    2.36082770506686   -2.93365093659818
H         7.03037772684648    2.19249564360251   -3.89273241514928
C         6.84890180462825    4.69980564038544   -5.16197876593902
H         6.24397108442357    4.39874092208499   -6.01451412261708
H         7.84798253327314    4.29573002633650   -5.28534999112656
H         6.91807447763349    5.78535971584293   -5.15357025197266

