79
CSD_code = BOJGAI | q = 1 | S = 0 | Stoichiometry = C28H40AgO10(1+) | MND = 7
Ag        5.71765881347525   -1.13173320399787    4.75417931399041
O         7.67322884958589   -1.43418071094316    6.52335270024133
O         5.91621440714021    0.62383405922209    6.93557456639241
O         6.13108400340604    1.55093625007015    4.23459465098188
O         6.81258089246787   -0.38173018134579    2.27082708503098
O         8.21186422031339   -1.89532534084025    4.11775823373926
C         8.29815345421145   -2.62832265270225    6.32252691860562
C         7.41482340078737   -0.98395792479882    7.83263054217511
H         8.29467501976873   -1.11376129975137    8.47477239968653
H         6.55268762292442   -1.50948329015104    8.25816851503395
C         7.09024450665216    0.49908066785732    7.70768075278290
H         6.93556738042582    0.93806347779395    8.70509450841528
H         7.93729645255133    1.00253036866271    7.22588774622026
C         5.61819062240696    1.93834795873098    6.53333520373864
H         5.77080895927661    2.64336933681162    7.36210732042198
H         4.56635300633240    1.91463954388294    6.24814255952038
C         6.42515546426570    2.39864608065090    5.32065504197367
H         6.14550080701027    3.43473285187018    5.07691592665358
H         7.50502506738090    2.37666623637961    5.53266260502594
C         6.79474394577196    1.94266443476642    3.05804254942230
H         7.88051488631113    1.98601810000260    3.23312000291220
H         6.46018895722266    2.94393551469641    2.74630810914655
C         6.45841647283656    0.94341679544262    1.95254779324992
H         5.37559056252874    0.93922680873424    1.81657499390018
H         6.94410174025793    1.25831936710057    1.01834723134527
C         8.19442545922986   -0.64620203203741    2.13108007978902
H         8.79174125487608    0.11072473792820    2.65206274073314
H         8.46802703637985   -0.64422110777731    1.06525748503013
C         8.50157285587316   -2.00515500521667    2.74329451895944
H         7.87160505300123   -2.76808558313863    2.27498381811808
H         9.56204373978951   -2.23833182119568    2.58363020033997
C         8.60912847031375   -2.88359965788766    4.97160199818037
C         9.25929504771933   -4.05361222988484    4.62651230508341
H         9.51264759466134   -4.26445484788206    3.59904406564419
C         9.60006827275523   -4.97250903705326    5.61309868896327
H        10.11094096530996   -5.88076646174074    5.33525188916206
C         9.28790022140983   -4.72596487717599    6.93223167995970
H         9.55028947155054   -5.44120808188939    7.69555164947723
C         8.63498901399483   -3.55276698007792    7.29215101569399
H         8.39605884262710   -3.37683786608441    8.32914843567040
O         3.68828488576812   -1.19418506919671    2.87993737421776
O         5.54386270901152   -3.32897550613683    2.88585606777815
O         5.67343613901156   -3.88689070955032    5.67237116112720
O         4.13723510248211   -1.81815572720788    6.94855983476565
O         3.43699852033572    0.26651625722953    5.07948916175469
C         3.18634527846961    0.06155932218522    2.70273657347506
C         3.95399324991647   -1.97607930441712    1.73567044316871
H         4.79938457383729   -1.55673969120564    1.18006910346564
H         3.06555076929715   -2.03463445055791    1.09430921991183
C         4.30438642257240   -3.37428747505156    2.21576463416781
H         3.50574917642045   -3.73011203857924    2.87963701295232
H         4.37106029526880   -4.05294919204530    1.35182485485305
C         5.93624339877672   -4.57166061364076    3.42031762602618
H         7.01046887073565   -4.50349899753291    3.59925686187784
H         5.73061150567861   -5.38036765729641    2.70596477754383
C         5.26451071953479   -4.87734712459517    4.75495600838239
H         4.17134033327854   -4.88810219730368    4.64709080618906
H         5.58696835879768   -5.86918883212369    5.10428305586729
C         5.04743036126247   -3.99359175661532    6.92821309866123
H         5.75387252941171   -3.58607782475508    7.65395211576649
H         4.84625391799499   -5.04346091135255    7.17298643521846
C         3.75905180920006   -3.17548073022040    6.99373780957094
H         3.09743430317313   -3.43497665137214    6.15564410099408
H         3.23038674059993   -3.39053144666368    7.93438763362747
C         3.07922882491404   -0.90181969042030    7.09943868646253
H         3.52986736256046   -0.01542313192618    7.55051419915891
H         2.30739298588823   -1.30773568036913    7.76545959853684
C         2.45740165828291   -0.49361981559299    5.76569820718326
H         2.17278413058569   -1.37572457555030    5.17763120652796
H         1.56129302939399    0.11689784224829    5.94411652210124
C         3.02056141628330    0.80822777344926    3.87827372663571
C         2.50236461528673    2.08933234271653    3.82649508579305
H         2.38611714531011    2.64589959107044    4.74400455444508
C         2.14785780309001    2.64860531358655    2.60906756290024
H         1.74273763217370    3.64705472315808    2.57130034833009
C         2.31796862531653    1.91995443099638    1.44790914846938
H         2.04763975952699    2.34863795349658    0.49556115607790
C         2.83767251496926    0.63445619877884    1.48603593542984
H         2.96894971074793    0.09593265553584    0.56117044912963

