57
CSD_code = BOJJEQ | q = 1 | S = 0 | Stoichiometry = C20H29ClIrN4Se2(1+) | MND = 8
Ir        4.52313506731494    3.10903420815982    8.04314382248078
Se        2.00583947706676    2.86071274155006    7.57469879212155
Se        4.62886450180730    5.68813072393607    7.42116563946822
Cl        3.91979616232198    3.66105238479696   10.27735090598409
N         0.74807099155671    3.30397562404689   10.10303424348338
N         0.87365986565015    5.12633201403756    8.92743427044628
N         2.93557730115198    7.09687238671776    9.25664344089053
N         4.87267742178688    6.60166943718511   10.11016375365500
C         1.19329166289715    3.81798713417333    8.94911971944230
C         0.16188956468342    4.29618051444867   10.82820328826716
H        -0.25715584353673    4.12548256584246   11.79832116014623
C         0.23201954685017    5.43485665145647   10.09442991848715
H        -0.13802878691197    6.41530035850951   10.30914061722923
C         1.17691631494918    6.02566222721527    7.84594071904501
H         1.82271171440135    5.48253228259757    7.14865742625744
H         0.25748248237271    6.29959695929230    7.31972554671632
C         1.86876102183977    7.31493856025818    8.31110807856456
H         1.15116931890393    7.98891802773398    8.78270607134335
H         2.27690874935820    7.80479316606560    7.42108866811337
C         4.11928037838838    6.50140774101301    9.00582007902992
C         4.15158755635228    7.22993433599542   11.07939348969605
H         4.54169471153969    7.40515039929880   12.06049492298931
C         2.94476067164367    7.54472821426094   10.54991856472000
H         2.11374348417630    8.05859512429689   10.98633824817165
C         0.94581970185289    1.94778958729308   10.52937839886664
H         0.74482103632971    1.27088332950565    9.69880776678113
H         0.27915327098448    1.72538510439543   11.35823630234694
H         1.98263050871194    1.81875193934072   10.84713116803229
C         6.20408532050231    6.08686998766366   10.24927853670329
H         6.77046343605478    6.29642513651655    9.34149706383454
H         6.16119725683970    5.00603361794556   10.40138421875293
H         6.68575350657987    6.55518048199361   11.10353708316834
C         5.88075803789000    2.55045536984438    6.40119088349821
C         6.66244844289061    2.71845360415758    7.61279367394292
C         6.23801682284765    1.73734803946391    8.55195897623783
C         5.14192774655756    1.01765132997733    7.96729039491557
C         4.97268978031394    1.48463498561362    6.60785927002861
C         6.14558204064464    3.27507790296661    5.12700850604972
H         7.08261983168895    2.92251081332721    4.69461454445398
H         6.23748770734750    4.34888147524856    5.29887697345180
H         5.34818554610702    3.11178238471970    4.40771017157238
C         7.84765796873186    3.61533213826278    7.71572874462893
H         8.68593840716242    3.16240541831059    7.18420529605843
H         8.14382567721141    3.77571324189155    8.74917215142379
H         7.64344324697551    4.57894438624728    7.25167134915129
C         6.84361085753149    1.43079885922680    9.87844890808381
H         7.25907316178894    0.42308801235521    9.85954319736408
H         6.09629179501641    1.46685786759242   10.67030819008138
H         7.63898255794157    2.12924242873264   10.12304176392379
C         4.48238539011549   -0.18115995037189    8.55522189691775
H         5.02878018682094   -1.07805736056223    8.25882983264988
H         3.45899902325575   -0.27653666678061    8.19831173333239
H         4.47593748831448   -0.13050160162109    9.64137555536121
C         4.07631179469492    0.85944519967312    5.59712151999503
H         3.88979715391736    1.53248365991101    4.76428497682017
H         3.11625251970560    0.58510538602141    6.03593168985099
H         4.54381944010911   -0.04801989173819    5.21280787498232

