57
CSD_code = BOJJUG | q = 1 | S = 0 | Stoichiometry = C20H29ClN4RhS2(1+) | MND = 8
Rh        9.55543473726511    8.16230878080628    7.84153109015746
Cl        8.90028542107970    8.48843753833462   10.06729797779591
N         5.84898962975609    8.15339952840076    9.49390725090180
N         6.02537043400756   10.13560887117520    8.60616293027829
N         8.14405685137416   12.00786989260513    9.22544617988445
N        10.06888197182919   11.31742260465080    9.98347552628908
S         7.22455330070020    8.17726024713636    7.15378922451812
S         9.62918726185275   10.64250628435567    7.39654012994951
C        11.30226907562733    6.87917807331321    8.28487174931806
C        10.19433085440106    6.10000262916863    7.78996891970874
C         9.93182454579761    6.51184546907743    6.43331145806443
C        10.78750514956672    7.60886571529230    6.13851245896314
C        11.65598922314857    7.82221851180290    7.27778655687623
C        11.99722207052792    6.62161960730811    9.58022744117457
H        12.39391478399362    5.60615201547515    9.57425821668387
H        11.30787755587207    6.70407693042393   10.42042920791212
H        12.81962191210044    7.31443629086948    9.73730603993697
C         9.62437100073045    4.90391369746557    8.47575614967962
H         8.61262088168946    4.69565150117080    8.13551886784443
H         9.61457952258289    5.04136345810335    9.55494371758972
H        10.24513880655575    4.03496012300312    8.25006694889576
C         9.00802081852696    5.84597277420394    5.47462111550396
H         8.50612318262833    6.57337413198869    4.83990818494809
H         8.25318094971083    5.25849630426811    5.99006409665337
H         9.58913631048261    5.17912914624983    4.83559671629134
C        10.93936308569694    8.28220709980897    4.81737957325407
H        11.75709067204039    7.81397569255334    4.26727413664883
H        11.17211470506848    9.33766789559161    4.94080108229438
H        10.03172411491805    8.19303348687021    4.22664642229161
C        12.82991214012452    8.74172250274234    7.26048531685526
H        13.29690535743066    8.82332933761728    8.23838612184012
H        12.54425196754210    9.73532927006377    6.91869865026591
H        13.56660642227941    8.35045144361717    6.55732427915733
C         9.26698267448959   11.32375788605283    8.90093162966842
C        11.36565153015278   10.70767205273818   10.02655882267014
H        11.74379482178807   10.73872773370419   11.04459766739970
H        12.04912564753428   11.23443225153948    9.35789441685429
H        11.28154538072238    9.66639929748521    9.69863856482537
C         9.43593744998201   11.96278127448782   11.00492455270160
H         9.87381299409841   12.06036194859288   11.97639916684582
C         8.24232555537314   12.39663538905851   10.53727078568888
H         7.46996057137554   12.95209339473216   11.02677743637751
C         7.06767787714042   12.37046612967506    8.33680391782799
H         7.45939029085024   13.00708111475840    7.53647531669585
H         6.34966492958990   12.94807931170475    8.92211635755339
C         6.38151578857482   11.17041174059857    7.67205898084189
H         5.48669029233302   11.52831898164037    7.15404365585749
H         7.05335696182012   10.71154505155113    6.93853772528914
C         5.29082024767369   10.26087138729526    9.75428654543241
H         4.89004907872224   11.19676911610031   10.08231948958385
C         5.18859991836516    9.02630934054917   10.30632076561964
H         4.70186472160461    8.71160258571907   11.20607800221488
C         6.02277489927767    6.74335395721071    9.69838708326145
H         5.75201085935532    6.20694843440781    8.78837763937387
H         5.39648498377305    6.41689137896188   10.52382471289160
H         7.07119318503627    6.54038494743024    9.92956357986803
C         6.37701462347872    8.83851843850664    8.46571944624050

