108
CSD_code = BOJLIV | q = 0 | S = 0 | Stoichiometry = C52H49N2P4Tc | MND = 6
Tc        2.17657537087826   10.17582566583465    4.27167798110832
P         1.71458097847554   11.67314184502612    2.51482860522244
P         1.56719496114647    8.59514199288351    2.65123243487447
P         2.76583596661596   11.78689858678739    5.87294043598235
P         2.54579607607738    8.73516647980320    6.09305784487275
N         3.90720533653055    9.91421838530230    3.73121622815528
N         4.97708123435629    9.70515379144147    3.43424099925887
C         1.08354589045948   10.71873064346108    1.03598818670144
C         1.83398041423790    9.39526300542836    0.99473266676803
C         3.05384430234963   11.00320518380810    7.55047087818510
C         2.24283342114085    9.71623956218776    7.63543838996922
C         2.95689046072827   12.70954023859727    1.64915559993590
C         4.29527145138672   12.67598081471058    2.01289199735856
C         5.22557341450028   13.44971663698031    1.33867656897263
C         4.82446637065610   14.26717439753816    0.29809899237637
C         3.48709383726527   14.31232302241169   -0.06794962520295
C         2.55922920592718   13.53965199838765    0.60099302555697
C         0.41562235316753   12.93306119908242    2.74405152206425
C        -0.93332768425835   12.59278058814439    2.74401503688004
C        -1.89411799051533   13.54349739683843    3.03595397542521
C        -1.52057221998168   14.83918325161107    3.35249329173651
C        -0.17799500002862   15.17733246657723    3.39161274895914
C         0.78301731420985   14.22957982901393    3.09696790382802
C         2.48648744058504    7.03121304158356    2.50984581042941
C         2.02974606579017    5.95129045380005    3.26634783580433
C         2.75693552094414    4.77891603867317    3.32267822689784
C         3.95363311959445    4.67231230289164    2.63035833175422
C         4.41974758050153    5.74425870278994    1.88782859537022
C         3.69684832683084    6.92351891432440    1.83189164657413
C        -0.12928304355454    7.97161854970337    2.35402270668734
C        -0.36340684222396    6.96168994419021    1.42387330422561
C        -1.65254218046069    6.52946362807483    1.17758928821289
C        -2.72069958053987    7.10219337972915    1.85063235627354
C        -2.49522311642265    8.11213561603040    2.76998537308116
C        -1.20434636128151    8.54428427641540    3.01944322777127
C         4.33852308876241   12.65351869524763    5.57527756360703
C         4.34757248050928   13.93821903956374    5.03623161809161
C         5.53564531994043   14.52353946198356    4.64271963038192
C         6.72636421385238   13.82422478082617    4.75737345110332
C         6.72198206832578   12.53126772833049    5.25484873757696
C         5.53558542825817   11.94450157070031    5.65324392002538
C         1.68923195607561   13.15509769979414    6.43724692868726
C         2.18700170217662   14.15102217731629    7.27608360912356
C         1.35068532987419   15.14483786585104    7.74593894593371
C         0.00782352978525   15.14678078971777    7.39943454528524
C        -0.49610603980867   14.14743723626566    6.58621079354575
C         0.34229433335794   13.15612368939324    6.10611099138280
C         1.51238028869133    7.26539103845794    6.41007254503339
C         2.01410087238550    6.02868945511532    6.79882653353259
C         1.15715680651503    4.95085928318056    6.94117098955152
C        -0.19783384818245    5.09526810947973    6.69551473086361
C        -0.70353300063328    6.32771940112430    6.31100900875086
C         0.14862739299776    7.40490804226930    6.16731331330901
C         4.21521715093729    8.04430444660163    6.37184559937166
C         4.98498782885710    8.19675728741419    7.52087903944830
C         6.26193478020421    7.66509419612570    7.57806657835388
C         6.78670529774757    6.97697298237406    6.49713241662244
C         6.02385196836751    6.81062264008748    5.35296560883478
C         4.75186271806888    7.34411289253110    5.29297518876263
H         0.63230791126548   10.34949337787722    4.77836493045745
H         0.01487671420494   10.52479886433435    1.17357608775676
H         1.22720235557812   11.29305815207355    0.11607779786618
H         2.90637613983273    9.58605116492470    0.87293256095508
H         1.48458261988113    8.74752853412584    0.18382055253708
H         4.61685564290292   12.04708088444338    2.82748521147235
H         6.26393879964655   13.41109509029590    1.63361966184498
H         5.54824554309268   14.87262253538397   -0.22812833944012
H         3.16924758048753   14.95506737259853   -0.87679473950803
H         1.51394178477331   13.59083254728749    0.32397076270620
H        -1.23528565402283   11.57829131693643    2.52491492224476
H        -2.94027893014658   13.27161807436824    3.02058497030923
H        -2.27295671955192   15.58095288561509    3.57798490392456
H         0.11981341761445   16.18150402873077    3.65759051594501
H         1.83217197690955   14.49211900192890    3.12997179244220
H         1.09804690026726    6.04475754075044    3.80975858954282
H         2.39319594410538    3.94946978412320    3.91180996962379
H         4.52465159516448    3.75635024979327    2.67534747315767
H         5.35633842585520    5.66638425625262    1.35439035571669
H         4.08418155351751    7.76085037994523    1.27024344570639
H         0.46854914026980    6.50850875907505    0.90047924383466
H        -1.82730915452351    5.74247333393061    0.45776038001136
H        -3.72676927899333    6.75965075308770    1.65616712275773
H        -3.32641760514306    8.56279789714663    3.29376376201196
H        -1.01160206961107    9.33147291063340    3.73442832909562
H         2.76704848320955   11.70676532381768    8.33898323190804
H         4.12207759003718   10.78938104778307    7.64440659937928
H         1.17127559642718    9.94720676922421    7.62897718362155
H         2.46514142576164    9.13175498805878    8.53433347269973
H         3.41511460965801   14.47703959833781    4.93246580086066
H         5.53234289691981   15.52457438788290    4.23511275260609
H         7.65466991316833   14.28160675323377    4.44692797324614
H         7.64435436474137   11.97265357621675    5.32202374878737
H         5.53970279009954   10.92193358756070    6.00949266021105
H         3.23358277824461   14.14725948906148    7.55293266727123
H         1.74440515778220   15.91978556038665    8.38848548132340
H        -0.64288456888775   15.92541709732173    7.77057974104392
H        -1.54358768673731   14.13914936402460    6.32224794344527
H        -0.03948344126775   12.37085608296866    5.47092691480331
H         3.07175886525792    5.90442691405664    6.98367165074798
H         1.55193121579817    3.99039697351388    7.24113362315641
H        -0.85922578493024    4.24719535046264    6.79918697988373
H        -1.75974426565502    6.44253004671666    6.11330700065467
H        -0.22321582529516    8.36763166753293    5.84667904608543
H         4.59815679578048    8.71470832842074    8.38630642205398
H         6.85075725927589    7.78998764390745    8.47619742325006
H         7.78636138955338    6.57070813018193    6.54896064687277
H         6.41968076396853    6.27223475032574    4.50444563392502
H         4.15039098360509    7.21759453265598    4.40482045932520

