71
CSD_code = BOJLUI | q = 0 | S = 0 | Stoichiometry = C32H20FeN18 | MND = 6
Fe        4.17609437406284   -0.00042817887936    8.23649716230177
N         0.72246504890401    1.76257821298377    7.27356003987466
N         1.90368417879692    1.91472041369407    9.12045112877463
N        -0.20132560292487    1.98552584637547    6.28854975488546
N         4.74625714535040    1.45480355902222    7.15332618006274
N         3.29256192265289   -0.72440011422102    6.61036618662616
N        -1.01967764683567    3.82768869135396    8.17140678208581
C         0.00261166468748    3.46672690260124    8.95009912786394
C         0.85895295811081    2.40300914341807    8.47333203321537
N         2.44806466913022    0.98005900162517    8.36382330626992
C         1.73244771747381    0.86095203448574    7.24380147800066
C         2.13430760949801   -0.11563082438249    6.26750146093969
C         4.60762811342867    2.06357704135562    6.16830038865701
C         0.26531834909790    4.08337095199505   10.17592483272042
C         3.14227115330184   -2.01914823452190    4.61761984602339
C         3.77438519193949   -1.65467155593078    5.79507864582343
C         4.29243054868367    2.78272792774643    5.05015183554320
C         2.93291007232933    2.90239781028727    4.81721462421841
C         1.43069761986165   -0.43252359408256    5.11001597697516
C         5.23873724199997    3.31099910420403    4.17247592670018
C        -1.80718091341547    4.80693706922000    8.57552903016153
N         6.01418769521449    3.74979492538462    3.44503604832226
N         1.78605950640101    2.94278679112452    4.66670106157850
C         1.94895460891895   -1.40099713339858    4.26866153969322
C        -0.56961641615348    5.10373737767038   10.58881930295710
C        -1.63021636659829    5.47905070293702    9.77453730131084
H         3.57927134719208   -2.77507624903594    3.98512954394851
H         0.50363853197727    0.07006351961733    4.88960344682889
H         4.70811662548753   -2.10319254392383    6.10148403864300
H         1.43333832360767   -1.66605289610589    3.35887097834300
H        -2.61596996974717    5.05693444496495    7.90202070030177
H        -2.30270578559270    6.27092835456628   10.06266785031616
H         1.10335083566332    3.74883615649641   10.76403173730461
H        -0.39942022644944    5.60235866314925   11.53146183476038
H        -0.84079588589458    2.71226506789982    6.62906037001563
H         0.29339817322086    2.31449918405111    5.43936427102219
N         7.63077097152368   -1.76213505148066    9.19871751678208
N         6.44964958169656   -1.91458796181059    7.35180188204832
N         8.55471752451144   -1.98427432624276   10.18372943710438
N         3.60611718701057   -1.45560600364733    9.31964496271102
N         5.05957354396627    0.72358805109343    9.86252680643186
N         9.37254072537358   -3.82781908882430    8.30175805167483
C         8.35246806051865   -3.46461072980316    7.52123157184953
C         7.49467451795101   -2.40232565680945    7.99877248579540
N         5.90470006999551   -0.98036895733067    8.10866879274973
C         6.62035990244329   -0.86095097939573    9.22854200410076
C         6.21832244115825    0.11549877665802   10.20491087331885
C         3.74484388295802   -2.06733373850872   10.30275668117708
C         8.09358291881757   -4.07720596965763    6.29258621105253
C         5.20995944371676    2.01832989052750   11.85530646456931
C         4.57745374203314    1.65339468153323   10.67817795018376
C         4.06057886528304   -2.78934703505241   11.41889597209856
C         5.42005966639455   -2.90393558704785   11.65475610548701
C         6.92246888890238    0.43307978273192   11.36187791815327
C         3.11459908282435   -3.32530954016936   12.29227444413661
C        10.16110198420665   -4.80596741743435    7.89702126146758
N         2.33963584606427   -3.77107494919372   13.01602539828147
N         6.56673539424019   -2.94043749067693   11.80750548273132
C         6.40406627287336    1.40127244239729   12.20346030904185
C         8.92966500439039   -5.09638623644306    5.87904707599075
C         9.98751290025510   -5.47455839739339    6.69555134482828
H         4.77270052856155    2.77385945252295   12.48809128274099
H         7.85014821561713   -0.06865126537009   11.58164638604936
H         3.64316762878718    2.10115184816219   10.37235206461564
H         6.92023149280649    1.66692934617992   13.11276562380447
H        10.96797381011665   -5.05795773246652    8.57207824063107
H        10.66057094979492   -6.26585107434271    6.40717123033187
H         7.25760874885316   -3.74046237888686    5.70284944852843
H         8.76252160882806   -5.59185249685864    4.93420552828649
H         9.19435109103177   -2.71113502152716    9.84382928424185
H         8.06053509309811   -2.31216675916816   11.03338813393582

