89
CSD_code = BOJMAP | q = 0 | S = 0 | Stoichiometry = C40H26FeN20O2 | MND = 6
Fe       -0.00100745714600    0.00311030170814   -0.00155096180856
O         6.27518710646362    0.71438463861557    1.56132447791869
N        -0.19434493900123    1.98763756176505    0.05747158660437
N        -0.36354824004479    0.33441035182976   -1.94904185844071
N         1.84811526149901    0.15027792770298   -0.14163870035214
N        -0.64863237319844   -0.38286500521512   -3.02182962094936
N        -1.35928924963749    1.66658063449724   -3.36404687527124
N        -1.96538840480315    2.77212417635896   -3.90916604678180
N        -2.30242131910609    0.94857738445163   -5.95244477317790
N         4.16093904886715   -2.01082230431229    2.29480581766287
N         2.63907135628863    3.19723162775209   -0.38627668929346
N         6.58948803078829    4.30923832168149    0.08124596215909
C         0.04750331062932    2.77751309144121    1.09295220834658
C        -0.08270070262069    4.15597640816662    1.02782576393535
C        -0.48029631430160    4.74352399762245   -0.16308699303437
C        -0.74398384340751    3.92962388992774   -1.25078473263169
C        -0.58700444176668    2.55740100233914   -1.09971658030733
C        -0.77579219403200    1.58529273559465   -2.14557992589904
C        -1.25861845961694    0.40723152072437   -3.88666718800949
C        -1.76881796016575    0.00148598182013   -5.17815304484280
C        -1.70711083570296   -1.33877129454025   -5.56737561776599
C        -2.22013440721706   -1.68707673471989   -6.80217510356961
C        -2.77703142683304   -0.69952137885696   -7.60428277746862
C        -2.79247211322782    0.60194172403585   -7.12809412346431
C         2.90302289311129    0.26720054455961    0.33353758844438
C         4.20338372237353   -1.02708065144673    1.69196352377232
C         3.65758149192250    2.78699737167173   -0.03751230563725
C         5.87010859762796    3.42729750959529    0.25370629408166
C         4.11624907009953    0.16473858465597    0.97410287026973
C         4.92848056754030    2.40079698890233    0.41374862134737
C         5.14335312287958    1.14553863671772    0.96846229354605
C         7.38204056133725    1.57078340086733    1.71141558231552
H         0.34968709034428    2.27748973099824    2.00149508220092
H         0.13625718732621    4.75748766968548    1.89533211022093
H        -0.57670417815310    5.81488499286424   -0.24655053578989
H        -1.04230932785149    4.33335225625361   -2.20478302321629
H        -2.23145557873879    2.52383468180240   -4.86969576794983
H        -2.81526448889209    2.98149506847132   -3.36944173903654
H        -1.26456520422260   -2.05999590173168   -4.90085121867082
H        -2.18917576263785   -2.71300322720660   -7.13795438016162
H        -3.18785289918514   -0.93290102244900   -8.57340706647846
H        -3.21385387130131    1.41099134182514   -7.70959301623901
H         7.80668817239403    1.85274338453352    0.74473222819186
H         7.11934211872378    2.47561943260992    2.26609699993709
H         8.11506007228486    0.99656755495420    2.27666991505566
O        -6.27617905348371   -0.73188540696132   -1.55886185294044
N         0.19140533649351   -1.98197533168408   -0.06032086135367
N         0.36148385025280   -0.32832688011197    1.94600566527211
N        -1.84985526463899   -0.14552199665009    0.13873174877686
N         0.64851857026106    0.38905879078704    3.01816349077025
N         1.35637690744132   -1.66127816944871    3.36093155196439
N         1.96064823087856   -2.76753173396596    3.90637609456416
N         2.30588950199314   -0.94237338273666    5.94685352679383
N        -4.16846561812574    1.99520752526690   -2.30886437800565
N        -2.63412416853187   -3.19213755661108    0.40681815009039
N        -6.58083284421312   -4.31723962660800   -0.05365989870533
C        -0.05061222118836   -2.77173151666725   -1.09583182877284
C         0.07749725217430   -4.15036392556019   -1.03022013813029
C         0.47304275210401   -4.73815326619321    0.16124870445405
C         0.73691041844439   -3.92435641803181    1.24895668373654
C         0.58219810640214   -2.55195128701551    1.09732314963447
C         0.77200623080265   -1.57973737659624    2.14290267596133
C         1.25812548765995   -0.40147980265859    3.88292002368577
C         1.77112805816117    0.00458844189161    5.17319486805936
C         1.71139158433842    1.34517036974089    5.56163716846482
C         2.22759487279910    1.69392978070288    6.79498093169223
C         2.78571351444909    0.70650931809347    7.59641255136589
C         2.79907955852029   -0.59528047404178    7.12106540944545
C        -2.90485779881518   -0.26802192716443   -0.33478146430990
C        -4.20871382343802    1.01523078862094   -1.69960422789460
C        -3.65321713555856   -2.78655179534415    0.05418597277554
C        -5.86407874339344   -3.43427222589450   -0.23182682068459
C        -4.11846624774340   -0.17265444836881   -0.97572125974659
C        -4.92503291442850   -2.40662213141273   -0.39958359369818
C        -5.14309638732171   -1.15590537194782   -0.96325111618865
C        -7.38074446996105   -1.59232581813995   -1.70272221370007
H        -0.35111058707379   -2.27146738448648   -2.00481709531012
H        -0.14144622627175   -4.75178464139282   -1.89780614544076
H         0.56757727971848   -5.80964267950314    0.24514483232620
H         1.03347861231603   -4.32833400554608    2.20337839617838
H         2.22992282328935   -2.51855238660847    4.86581063102683
H         2.80823725973316   -2.98084851117046    3.36440699494446
H         1.26798790621201    2.06629625836911    4.89558001775976
H         2.19830715838054    2.72012544031943    7.13008110646995
H         3.19900375862443    0.94024150637171    8.56440210231121
H         3.22112863746083   -1.40427232987521    7.70216161061258
H        -7.80457061265774   -1.86856908866819   -0.73402301416046
H        -7.11565110546950   -2.50038277113695   -2.25097348202866
H        -8.11538123646603   -1.02417146030560   -2.27199292815304

