57
CSD_code = BOJNET | q = 0 | S = 0 | Stoichiometry = C14H32N10Ni | MND = 6
Ni        0.00014083939939    0.00000581528708   -0.00024747807014
N        -1.21787227407234   -0.62076830309629   -1.82035533878413
H        -0.81792976684814   -1.50003289330035   -2.14881934546886
N         0.93108138571891    1.21252975793972   -1.34819600756046
H         0.50720023486601    2.13579611383719   -1.24866776170458
N        -1.20773128638097    1.35721030725991    0.38511486314748
N        -1.07011626953791    2.32813656733074    1.01806964948109
N        -1.04604947360600    3.30241811189552    1.61353504482830
C        -0.89464157261443    0.38751648127982   -2.84104597107444
H        -1.02009313674593   -0.02430573709563   -3.85760001347256
C        -1.75033144398053    1.64667500730736   -2.72760553073721
H        -2.76616766178184    1.45799233925306   -3.06372046029181
H        -1.33105599482421    2.43357236716021   -3.35083021458208
H        -1.78623151641513    1.98463318901316   -1.69557019769388
C         0.61119826376327    0.72700545658051   -2.69145791451642
H         1.19562840095252   -0.17933402627320   -2.87320846404361
H         0.88800466268198    1.46734531584434   -3.45682126358423
C         2.36501563854342    1.35548536731760   -1.08787844428883
H         2.80840447300451    2.03894486504739   -1.83095990718193
H         2.83413802462110    0.37566061748840   -1.20470528231756
C         2.67012148852393    1.90552279550044    0.31350433446356
H         3.68342813156366    2.31025867321117    0.28191072061700
H         1.99335973770533    2.73685339557629    0.52951028672907
C        -2.61438089936189   -0.90098632681967   -1.48515665211338
H        -3.08178472374190    0.03334894858057   -1.16543029734054
C        -3.38279583784554   -1.48534271674268   -2.67758854638563
H        -3.33926084023504   -0.81606491216185   -3.53306707992024
H        -2.95301625804143   -2.44258996305194   -2.96845825580866
H        -4.42806879193264   -1.63997759872256   -2.42290114171893
N         1.21814877351991    0.62094470448464    1.81979674253508
H         0.81806758331353    1.50016292229409    2.14823218330121
C         0.89500577397527   -0.38730249286431    2.84056269853746
H         1.02042877919962    0.02460164434311    3.85708233532149
C         1.75083195395140   -1.64637715792419    2.72720948873760
H         2.76662026738361   -1.45756849314665    3.06340531582479
H         1.33159636161630   -2.43331019629061    3.35041719768733
H         1.78689148835381   -1.98440166369440    1.69520720140776
C        -0.61081530588508   -0.72692871884211    2.69106005535027
N        -0.93075020305553   -1.21242423111091    1.34778367480274
N         1.20789753729839   -1.35702421902149   -0.38626426889541
N         1.06765592781534   -2.33060954051377   -1.01453354056979
N         1.04112264399390   -3.30737055909964   -1.60584009733606
H        -0.50703887055324   -2.13578169099075    1.24835998493764
C        -2.36471147648007   -1.35533073920787    1.08747372698792
H        -2.80807436484187   -2.03887073527669    1.83049266433765
H        -2.83386758229093   -0.37553557447672    1.20444039220188
C        -2.66986376087881   -1.90522590756149   -0.31396230265686
H        -3.68319026200306   -2.30990960515626   -0.28236390322493
H        -1.99316200782353   -2.73658510959716   -0.53004951995401
H        -1.19532350745457    0.17932147456488    2.87299971288493
H        -0.88747363286402   -1.46735036650399    3.45639415441722
C         2.61465742233877    0.90138379792849    1.48477785077900
H         3.08229625876334   -0.03288050331186    1.16518640364098
C         3.38278267021115    1.48601021156258    2.67726605237161
H         3.33935397483120    0.81676298533186    3.53277352132736
H         2.95268191547254    2.44314092367848    2.96805182712264
H         4.42803810871488    1.64094982495664    2.42268711751602

