58
CSD_code = BOJPOI | q = 0 | S = 0 | Stoichiometry = C32H21NiO3P | MND = 4
Ni        7.94256506379783    1.40045389609608    8.74339221719244
P         8.36511659137967    3.49940823073997    9.48680121047348
O         6.48086448953799    0.27385754826697   11.03757541215328
O        10.47733100872018    0.03871719470251    8.11558267070477
O         6.39793764407509    1.86324714608418    6.28711564798216
C         5.91323910810314    3.64807691641820   10.89900043626696
C         7.15712461432254    4.34644442023403   10.57222399428492
C         5.12741172639908    3.13575208083526    9.86966079278876
H         5.42686572420499    3.30920050744751    8.84299073135180
C         9.78170144842076    3.86112066492813   10.55982755830112
C         9.26760142549818    3.69390876837981    6.37099398329462
H         9.89904239700198    3.08030854668201    7.00297013470647
C        10.03851212705610    8.35000766062521   10.39464350049565
H        10.54871889948602    7.97234492475509    9.52034449963181
C         8.60810401409061    4.94378011784075    8.39247438910106
C        10.69462037569738    2.89405675484828   10.94488152922423
H        10.56602611497010    1.87450450062081   10.60428394027495
C         9.10819611738057    7.55037892237708   11.05441178870190
C         8.54591472769426    4.73698239892554    6.94574212671707
C         7.50814665544818    5.56136458336488   10.98519831104472
H         6.84593257887618    6.16199933901543   11.58667337236539
C         7.68839423500728    5.31028397856328    4.77386197601800
H         7.06687507627753    5.93740311351236    4.15143347449069
C        10.96089865670576    5.52069501016268   11.81515968456840
H        11.07469301215224    6.53557480104468   12.16593565287589
C         8.40608982638185    4.26821641492278    4.20970639668878
H         8.34347112209158    4.08160658487691    3.14792419319510
C         8.79507267953464    6.10342629604983    9.01849780075012
H         8.91523414761406    7.02839973130508    8.47699302693106
C        10.34584695074883    9.61647473607090   10.85663058219417
H        11.06813108067859   10.21856150641943   10.32503169002772
C         9.90321635748475    5.17953665563650   10.99118610518210
C         5.51340299929794    3.46420645680717   12.21883931345761
H         6.12840973579848    3.85244187491296   13.01827389907439
C         3.96273094534166    2.44830932473972   10.15582080930077
H         3.35869076962596    2.05543999227841    9.35106752045773
C         8.82384493974172    6.15966102979580   10.53346924985028
C         7.75789081828393    5.54811869273030    6.13412223909051
H         7.18739069753613    6.35044411243872    6.57988680627312
C         9.52296229879386    0.59525032367828    8.39728815143944
C         9.20186436997957    3.46469869226525    5.00952946792545
H         9.76611079849154    2.65379667041918    4.57267037993420
C         3.57890271385049    2.25505932427619   11.47261713927585
H         2.67732161887078    1.70482557416549   11.69755362131455
C         4.35293375605992    2.76716597876640   12.50105281290553
H         4.05378249134204    2.61772735133456   13.52822542217727
C         7.03462787759634    0.68529438449254   10.13161913043288
C        11.75059433318774    3.24473144884152   11.76809903726651
H        12.46743966877132    2.49845617329149   12.07597876397590
C        11.88025823763509    4.55428749765826   12.19648375279858
H        12.70227909854743    4.83227469716721   12.83912652101260
C         8.53873834030958    8.03859021922998   12.22422945169080
H         7.86171213659021    7.42881150019076   12.80275838903733
C         9.73881509698845   10.10699879139827   11.99981337219280
H         9.97440681911518   11.09695117015569   12.36064909064326
C         6.98832767681403    1.66190816958253    7.24019813233025
C         8.84380878178300    9.30734858029504   12.68707844695156
H         8.38245698252384    9.66760801684694   13.59500024952596

