53
CSD_code = BOJPUO | q = 0 | S = 0 | Stoichiometry = C29H21AuClP | MND = 2
C         0.69292403001947   -1.48054348287317   12.41134064297321
C         0.96791720343684   -1.16149458853056   13.86184944372496
H         0.14707476707358   -1.00296534268705   14.54904846843228
C         2.15354782975912   -0.32385758565114   14.03335219508073
H         2.38648610144329    0.07858244668458   15.00709002903710
C         2.86943395005129   -0.04943668129640   12.92699522280435
C         3.10576857204297   -2.46929389266256   11.97813944419678
C         2.44298031016416   -3.14021504540649   13.01621441090108
C         1.11039607004180   -2.60488922004631   13.35509770364196
C         0.09848216547218   -3.59565170433580   13.81712800942797
C        -0.46863754117663   -4.46801607800417   12.89509432687170
H        -0.17386336297977   -4.40975919190980   11.85778711161984
C        -1.40648331376857   -5.39859086847176   13.30181569109375
H        -1.84729368917678   -6.06690320950752   12.57743509615311
C        -1.77864211178726   -5.47418704878173   14.63366915782677
H        -2.51126107473857   -6.20108278804099   14.95083354848627
C        -1.20557041562716   -4.61882467851146   15.55874500999608
H        -1.48646030543132   -4.67991879574911   16.59987358953961
C        -0.27124188314247   -3.68217215619192   15.15309280899621
H         0.18074723174069   -3.02187854226897   15.87983409230563
C         3.03940555404345   -4.25047520268862   13.59189991521004
H         2.53654928045774   -4.77917694881566   14.38857609280772
C         4.27795517087103   -4.67043005174390   13.13482953170144
H         4.73994453781115   -5.53992421571255   13.57778657185409
C         4.93174852404668   -3.99138141807290   12.11664308082564
H         5.89390303544287   -4.33773767163880   11.77100242861056
C         4.35462119732602   -2.87336209385566   11.53816457491367
H         4.85220105730167   -2.33258222525570   10.74546908452195
C        -0.61927298970818   -1.46187440816175   11.73516909726552
C        -1.77998813405909   -1.00184585904516   12.34328604413120
H        -1.74902662877120   -0.61521320398712   13.35107181427113
C        -2.98041227077812   -1.02951228225756   11.65588747929793
H        -3.87806143075615   -0.66822602060013   12.13552873040487
C        -3.03369266789919   -1.51001479692497   10.35887023558241
H        -3.97186150361871   -1.52318062517706    9.82504920556953
C        -1.88033142755480   -1.97135930572510    9.74613000794090
H        -1.91279254393024   -2.34583972576983    8.73434496397508
C        -0.68257226645744   -1.95090645539246   10.43365385406289
H         0.22302504638867   -2.32215473116138    9.96638592400905
C         4.12489391773679    0.68499450942412   12.83942098025015
C         4.48554602999473    1.31636906823794   11.65049660947841
H         3.81600929735709    1.26824773518000   10.79970909901559
C         5.67399589330977    2.01425247215203   11.55530600232105
H         5.93607668179145    2.49977228307307   10.62744139510327
C         6.52464103191556    2.08727491108486   12.64613538586223
H         7.45553235289603    2.62900759584990   12.57202792548190
C         6.17991875808329    1.45760597909776   13.83160710288963
H         6.84413595558498    1.50670317218683   14.68194343536831
C         4.99193988178108    0.75967148478133   13.93042828846350
H         4.73833606268882    0.25379733906624   14.85017190319848
P         2.20751835489008   -0.97417985856577   11.49455630058794
Cl        2.11907074325507    0.43113176076851    7.22059362487218
Au        2.16153896515542   -0.25945275607976    9.37257730704457

