62
CSD_code = BOJQEX | q = 1 | S = 0 | Stoichiometry = C23H35N2OPd(1+) | MND = 4
Pd        4.66881450138563    4.83814088391116    2.04078114651794
O         6.26406292025172    4.05290775586146    3.03208568093878
N         3.16372134615091    5.53964920557055    1.02008907655236
N         3.27447675786303    3.02293077203435    2.03505182170549
C         2.07068651933745    4.90947283988294    1.18096593834010
H         1.17278762254075    5.18643355377449    0.62953783922969
C         1.98789197749856    3.75998209705300    2.16141605412028
C         1.87756180600176    4.41493370093378    3.55103069913031
H         2.80161351352634    4.96625094807766    3.78414985725735
H         1.68667699155036    3.67342298613863    4.32138106382147
H         1.04902418700826    5.12048963998488    3.55322223769790
C         0.72464812133198    2.93866820426992    1.87234616416816
H        -0.14743524703772    3.58303381032965    1.95413708356621
H         0.60650394717658    2.12807694288019    2.58155667767185
H         0.74057830450134    2.51973758619602    0.86992906437979
C         3.68321834507058    2.16975214802079    3.16566338639301
H         3.82825528678127    2.80414278112829    4.04729162165218
H         4.66551423619312    1.77106859110207    2.89826432385417
C         2.77940694233746    0.99551314583508    3.54520991963044
H         1.88625217156271    1.31789001748130    4.07323141854893
H         3.33174166969088    0.33791456086079    4.21185517655532
H         2.48386691772408    0.41235436766702    2.67733903600449
C         3.40703916616237    2.32960100179384    0.74235268774145
H         2.82262592384008    2.87668251951306   -0.00401503489689
H         3.01399411369920    1.30799034185644    0.79773590696331
C         4.86086231164475    2.28734714039368    0.26769111909957
H         5.29583499954663    3.30513318500638    0.26630320091548
H         4.89953796696184    1.89661927109666   -0.74627469782435
H         5.47182339703922    1.64432087906492    0.89800582246943
C         5.75224837794146    6.59259240429337    2.19868537458351
H         6.02529686037619    7.02626611588947    1.22611377969809
C         4.96148170192663    7.57536651013008    3.06713789699575
H         3.92204355350488    7.71600133644997    2.75781359696214
C         5.73946478954144    8.90082120382482    3.15258414743177
H         6.07051866629182    9.23219746816600    2.16958265859321
H         5.11195053619731    9.68392611848198    3.57589593606621
C         6.91664998462327    8.56202098292667    4.08815607822224
H         7.88496320650137    8.76040303275128    3.63221403391115
H         6.86067903943652    9.13335454685859    5.01396790776593
C         6.70775376786656    7.07316034792827    4.37967519573669
H         7.26347639388960    6.70922745372257    5.24197886178039
C         7.01048497797151    6.30119550471035    3.06533248812195
H         7.93385517490765    6.68470963669758    2.62029575701999
C         5.18522273753746    6.98619319611889    4.46486244462024
H         4.81745366862999    5.95471625654026    4.56465337302676
H         4.77560678670780    7.59927488928557    5.26454970035792
C         7.16615275462481    4.83891618082976    3.31536250227833
C         8.44149472738678    4.33778945881068    3.91200586978650
H         8.80995624849780    5.01251333717228    4.68024836559967
H         9.19631528871315    4.29377010431214    3.12583867199759
H         8.31092226677017    3.33697719655039    4.31685154832292
C         3.27326579363815    6.59369250057557    0.10135611997124
C         2.34031463934705    7.62460965680984    0.04628348172252
H         1.51497896163685    7.64030195358517    0.74316781966439
C         2.50214545418891    8.64469295329649   -0.87441113106491
H         1.78693874325613    9.45158296934152   -0.90598660323901
C         3.57278545567888    8.62937395838536   -1.75261168261049
H         3.69104196592893    9.42466722794659   -2.47134583609033
C         4.49569574731525    7.59482360707737   -1.70658835652646
H         5.32654733649720    7.58062232782467   -2.39471794744606
C         4.35739053885724    6.58354646537992   -0.77615892354295
H         5.06881713644857    5.76193221963579   -0.72812742195707

