41
CSD_code = BOJQUN | q = 0 | S = 0 | Stoichiometry = C14H22Cl2N2Pd | MND = 4
Pd        3.22279052838915    1.31137221461017    0.38500820754283
Cl        2.44380247592676    0.76819325769331   -1.62224398625062
Cl        3.38356584195284    3.44870326388964   -0.28540643160967
N         3.96126090615944    1.66686898896763    2.17499072412863
N         2.80467577833773   -0.65354933088083    1.39900845001553
C         3.51005833229355    0.89871982963505    3.08812683868998
H         3.88551785317289    0.93438616364545    4.11062570720035
C         2.43574158037851   -0.10590473678740    2.73621325164836
C         1.11523041441956    0.68292586563547    2.64069798355178
H         1.14772353332194    1.38261583358737    1.78622972479242
H         0.97516647353278    1.26220113479459    3.55178283108758
H         0.26482569693919    0.01597080224862    2.52865734072657
C         2.33895439324025   -1.14313236165635    3.86444873593201
H         2.13562602377800   -0.62842813412949    4.80107801647253
H         3.26910857381400   -1.69421829197740    3.97727859497282
H         1.53641263292552   -1.85005916728049    3.69208277565311
C         1.74364015292405   -1.33525357814503    0.63871891017145
H         0.94880243774160   -0.61437832143820    0.42947850121741
H         2.18480763339602   -1.58049503228951   -0.32941360761607
C         1.12598595267874   -2.60402704361361    1.23063775917050
H         0.58821245083395   -3.11806197677053    0.43784298073318
H         0.41010417342123   -2.38538736850843    2.01906227060481
H         1.87726561343171   -3.28767397984609    1.61774869794917
C         4.04653740699672   -1.43950088109506    1.43381833279461
H         4.68488820949741   -1.03699891384729    2.22738795292264
H         3.83977504921243   -2.49120482449917    1.66807970000787
C         4.81641223335228   -1.36261756090712    0.11604243761607
H         5.79475243485011   -1.82243495265050    0.23634778837073
H         4.95286809238037   -0.30846659689805   -0.18587301652298
H         4.29131166799091   -1.87626936988449   -0.68530551055459
C         4.96499241870255    2.60856320883965    2.40279482677857
C         4.99702309277842    3.40049067655015    3.54774915861905
H         4.21207365947341    3.31229434048221    4.28509317172511
C         6.00263298482423    4.33647806044318    3.70459227730170
H         6.01530955821078    4.96243800530125    4.58423098812555
C         6.98272282979664    4.47770839774172    2.73667030250781
H         7.76250156274372    5.21310405829859    2.86361503874593
C         6.95307067285330    3.68798924734078    1.59709843152528
H         7.70937449053494    3.80702832421394    0.83667845084968
C         5.94584043093399    2.76072541222186    1.42153788790200
H         5.89623375186756    2.14718533699456    0.52278750450372

