39
CSD_code = BOJWUT | q = 0 | S = 0 | Stoichiometry = C10H18CdN4O4S2 | MND = 4
Cd        2.47825184404753    2.28735930222396    3.50672606227353
S         4.04869576187900    4.39101522110869    4.41304033426033
S         0.92133584240213    4.39058203299126    2.57866043165230
O         3.60132091567843    2.00116028211116    1.59122131814025
O         1.35890178763132    2.02296266214633    5.42815667222019
O         4.13293367924894    0.87296151067504    3.39325236526865
O         0.81457049600879    0.88532768025085    3.63585455355314
N         4.16426263280002    6.56732562346517    2.88780187436277
H         4.36668429220336    7.13575834753173    3.69108411177001
N         0.81831225890660    6.58046069568723    4.08547882939164
H         0.61605069195645    7.14235264009053    3.27747252070213
C         0.82707120523048    5.23026474173608    4.01554467942717
C         4.14690821433821    5.21807229386437    2.96904315633188
N         4.24414671187497    4.69424548063841    1.74725936638270
H         4.02970912978770    3.71247180982798    1.55219754870645
N         0.72566854706938    4.71720771195948    5.24150390887000
H         0.93508150180879    3.73612921324482    5.44527600319978
C         0.66737425527861    1.14388083858034    4.84337119792405
C         4.28676565344399    1.12306786263737    2.18503264669423
C         4.40094394306015    7.01107310680899    1.52852321174336
H         5.42789405750102    7.37569823266666    1.40427194860269
H         3.70832194790525    7.80991820540048    1.25652400186204
C         0.58025569943014    7.03632300727455    5.44058883402983
H        -0.44560173447392    7.40577570099455    5.55955714844429
H         1.27533750726470    7.83468830725259    5.70754725860547
C         5.33552048660152    0.37069653600722    1.38915661729053
H         5.94850014638088    1.07477029421489    0.83189712084169
H         4.82903103702193   -0.27947755087659    0.67948978253292
H         5.94995389715083   -0.22397193920118    2.05752186450703
C        -0.37627101011115    0.39420787605317    5.64812201320564
H        -0.82992861719361    1.05595884491516    6.38090983506566
H         0.12173650495878   -0.41718255396170    6.17476754590714
H        -1.12720924256640   -0.02079352708131    4.98306156836180
C         4.15463131589345    5.71891529718137    0.72730783333555
H         3.15884589227200    5.71001502302496    0.27074957555172
H         4.90324925231453    5.55311611513115   -0.04906889618674
C         0.81968849142496    5.74988747472389    6.25290330262044
H         1.81523481537346    5.73994438482797    6.71000161259815
H         0.06982018827350    5.59433121394386    7.03019023983388

