68
CSD_code = BOKCAF | q = 0 | S = 0 | Stoichiometry = C19H44O2OsP2 | MND = 5
Os        3.08924837485554    5.17330622329526    2.50891882864372
P         4.09733760731469    4.04792126812167    0.68880129709507
C         5.38235812872366    5.03266206715348   -0.20076018055041
C         2.90080889146098    3.67546795392723   -0.74775613460197
C         2.01651702207416    2.48547666438870   -0.37886549099124
C         3.54512829484686    3.44228434439326   -2.11406770395831
C         2.01096803400090    4.91920153803372   -0.84173820461946
C         5.11765132725415    2.49426197748742    1.10719005235202
C         5.57380264304018    1.64651790147742   -0.07821762292791
C         4.31421289509360    1.62064539700691    2.06978600772293
C         6.35265285974887    3.00874271590014    1.85541570278586
P         2.14555136233847    6.77153444164953    4.00977056037563
C         2.85344400999105    8.45437020821189    3.83089521212603
C         0.30198995711840    7.11879579402952    3.68839570598608
C        -0.57317402631653    6.03245381988221    4.31145770649500
C         0.15854811437868    7.02563176915226    2.16557789966683
C        -0.17828586726171    8.49793220679584    4.14035567083297
C         2.43607770947213    6.46533228510294    5.86518648836996
C         3.94267050947724    6.65889183891903    6.07080845401625
C         2.09897649560929    5.00983265687458    6.18777895594844
C         1.68415500836694    7.38579462167535    6.82384151506594
C         1.96854928672584    3.77190005345124    2.98176780690673
O         1.12557167562486    2.97995057615552    3.16986634142944
O         3.54119418595410    6.89215005467982    1.60182807920074
H         6.01363186323767    5.52263338425587    0.53931067342641
H         5.99474311098743    4.39946171862867   -0.83959411801198
H         4.90978442388927    5.79695570737073   -0.81564583111704
H         1.64236217641749    2.59068231537281    0.63813938768025
H         1.16194134391193    2.43306165644775   -1.05361497739211
H         2.55979470763496    1.54757427976508   -0.45801183777395
H         4.20589351392755    2.58259753595560   -2.11596315620572
H         2.75608171516406    3.25538945035905   -2.84314547137512
H         4.10320678010797    4.31208683494319   -2.45188828057064
H         2.58708724983686    5.80820178368961   -1.09771206755806
H         1.24780732351370    4.78473948291755   -1.60829848888101
H         1.50753475271296    5.09545832647772    0.11004853111236
H         4.73919432738030    1.13292042427109   -0.54733865604974
H         6.09876526635381    2.23417040771273   -0.82817966613635
H         6.26565452380963    0.88538332780100    0.28248442650578
H         4.01964410236589    2.20551740794925    2.94024713239480
H         3.41741640152207    1.22424512374064    1.60454319680615
H         4.92340876979954    0.78094634010048    2.40166623170326
H         6.83700816863404    2.18532632428171    2.37749525388300
H         7.08034403444434    3.45040496522297    1.17894805132427
H         6.05304414250182    3.75057015848980    2.59654880321233
H         3.93691739734871    8.36279213760993    3.81489644715931
H         2.54423596936665    8.86773249584665    2.87434433428197
H         2.54120936283895    9.11047518604890    4.64085934097655
H        -1.57864985534797    6.08526979674590    3.89282743978489
H        -0.16743443755414    5.04569720950723    4.09672370377331
H        -0.65626421638996    6.15361966234819    5.38816594043337
H        -0.83537285134777    7.34579611511291    1.85205242636395
H         0.89478161365901    7.64992690409922    1.65989483271236
H         0.29890785969078    5.99186810778069    1.84564946329732
H        -0.01180611632728    8.66264655166526    5.19995451369453
H         0.30992203952958    9.29232645253815    3.58153462642226
H        -1.25039635960533    8.57519047852454    3.95619823234600
H         4.24443482918593    6.23924326938281    7.02933632253892
H         4.49243889099924    6.14089209024939    5.28407815863160
H         4.21613202456895    7.71124939188504    6.06423141503609
H         1.03339561816281    4.81701538912024    6.12079384502011
H         2.61435490399798    4.34824088511145    5.49145503845692
H         2.42161470474712    4.77066324100361    7.20040946851233
H         2.02920692390972    7.19268388595953    7.83975685791019
H         1.86946118510919    8.43643464337908    6.61064156719284
H         0.61354832712617    7.20265542309906    6.80134800578209
H         4.04401728109158    6.99671371870498    0.79293843768357
H         4.13574170717993    4.62478163074322    3.53643349764521

