61
CSD_code = BOKDAJ | q = 0 | S = 0 | Stoichiometry = C26H22N8O4Pt | MND = 6
Pt        3.17997567004602    5.36851942267148   10.67994764461827
N         3.32083087657252    5.33953261400015    8.67120381383770
O         3.42021985890892    8.69623937682159    6.28765301762100
C         3.43115468781038    7.54770346572282    5.84540907454521
C         3.51638185157476    6.00709077921173    3.84873574404121
H         3.59727235623473    5.15551341604786    4.50588539189937
C         3.43430145692766    6.43993749141619    6.78997122434419
N         3.77815683542612    4.52789585832164    7.72546216339584
N         3.84045721807191    5.15427408732814    6.60944708463364
C         3.43519314749998    7.28835606997093    4.39219407550235
N         1.36631948193052    4.49077894470735   10.53927620509666
N         3.05396133283962    5.56755054237233   12.67998625335241
O         2.28905130068627    7.18857671111830   10.26545658307224
N         2.04181904674495    5.53880648363655   13.27623480564233
C         0.31990423327080    7.31074308481912    7.95616242663589
H         0.51021252921158    6.24545034354694    7.99617052723573
C         0.25202765545443    5.17445014460277   10.79562276819454
H         0.37240602444560    6.19881887751000   11.12718308959768
C         1.28021038595043    8.20346761612331    8.41289580251469
N         4.96345395096071    6.26742814623928   10.70907839813921
C        -1.09524265969939    3.31035953158377   10.15612292894219
H        -2.05908376348602    2.84806790917793   10.00654141600750
C        -1.00069144197143    4.61475278202792   10.61558623850989
H        -1.87998794543469    5.19868498631373   10.83337303522620
C         2.57484786859851    7.65702927668216    9.01622569815980
C         1.29083017005675    3.23798719201655   10.09017812537660
H         2.23677255148902    2.74019461748862    9.90719237790070
C         3.09385916738872    6.54865677950521    8.14052090965137
C         0.07343853761464    2.61281107849349    9.88864235192362
H         0.04814060058164    1.59818519796543    9.52523589601549
N         1.14267724903714    5.51627499121128   13.96401499465798
C         5.99592871773470    5.68248739372413   10.10137185263513
H         5.84233903691940    4.66385480264859    9.76106113999604
O         3.59202608531457    8.65100742392280    9.08210639193394
H         3.70124157038634    8.96433009459557    8.16253875724105
O         4.04526972857861    3.55151531856277   11.04963400625677
H         4.25165546244514    3.49386298431342   11.98706721825902
C         3.34543428666042    8.39032712556713    3.53878881407650
H         3.28233176167154    9.37543146410290    3.97728826049682
C         5.07488379401556    7.50856787610528   11.17337953218646
H         4.19925814497309    7.93326603305881   11.64607811005001
C        -0.87578708158089    7.77850401242725    7.44321217494981
H        -1.61493492260062    7.07785135812288    7.08164279227160
C         6.24830321675625    8.22985758889275   11.03093418936566
H         6.30149933935034    9.23880283180374   11.40558751425574
C        -1.12079326074125    9.14030817877217    7.38820583106543
H        -2.05308075522593    9.50533679918370    6.98244202526080
C         7.19857344809226    6.34088443732808    9.92534586663654
H         8.01256253826388    5.84275014478444    9.42370372965017
C         1.02706748682760    9.56467417552163    8.37153609009340
H         1.77071304378590   10.25205847405339    8.74423705563192
C         3.51274421545522    5.84192596574845    2.47584393478151
H         3.58059493825651    4.84849835619182    2.05713781256233
C        -0.16977796963778   10.03016378809775    7.85612133464349
H        -0.35933793098609   11.09294331343440    7.81952230970827
C         3.42063000327139    6.94022147022868    1.63562821186561
H         3.41466881889069    6.80227683772755    0.56398899580081
C         7.32612917520826    7.64265477361701   10.38919778203815
H         8.24818121330666    8.18654389201429   10.25067635066750
C         3.33651070541441    8.21697652745988    2.16993469802439
H         3.26519495446296    9.07417873935513    1.51647715130823

