59
CSD_code = BOKDIR | q = 1 | S = 0 | Stoichiometry = C24H28ClN2O3Ru(1+) | MND = 9
C        -0.66338674550614    4.42778094765193   13.01786431982589
H        -1.68935697382196    4.27865158547612   13.32681731454621
C        -0.23872647585332    5.65889008607792   12.55540489899356
H        -0.93723411279202    6.47664385386032   12.48809579288210
C         1.09463783779539    5.82528708582971   12.20103523495077
H         1.45869518080279    6.77853035237544   11.85345417245956
C         1.94753908730941    4.74119598670394   12.30918722320532
H         2.98758671932763    4.84305994548529   12.04369940176309
C         1.45146252345811    3.52817675899086   12.77531808476667
C         2.20227698656472    2.26125730683082   12.89886963938841
C         4.22987573310790    0.93786567866649   12.69698394555796
H         3.78220770475482    0.32336650221818   13.48104949138573
H         5.26789670256059    1.14865981529433   12.95386924118499
C         4.15954728849171    0.19343443583483   11.35415889113114
H         3.11517940559565   -0.03086931690790   11.13092710953121
H         4.55407608911275    0.83693462382523   10.56609620463747
C         4.96235900249198   -1.07590278745287   11.42605763442370
C         4.38001810058500   -2.26375026363300   11.83717904594267
H         3.33044210996524   -2.29381963038082   12.08771150323617
C         5.13288862710066   -3.42445876359118   11.92024186785716
H         4.67145714424697   -4.35053358739011   12.23387919162031
C         6.47739168151273   -3.40632686958534   11.60008260270850
C         7.08113919704063   -2.20627409879407   11.19000587633931
C         6.31489816978574   -1.05587535650967   11.11041707894358
H         6.79786255398985   -0.14831654113581   10.78493949913020
C        -2.15276442562352    0.84679570477516   13.00709624613886
H        -2.55079753688103    1.00357011323888   12.01058034360205
C        -1.26671719651695   -0.22052360521956   13.24286507870873
C        -0.83126260970990   -1.13647218237202   12.14426722817001
H        -1.37475177393659   -2.07935163776994   12.21972790881215
H         0.23144591419135   -1.35698887391837   12.22817002064658
H        -1.02737977504467   -0.70400887388180   11.16606570255047
C        -0.86304332653339   -0.47908149117330   14.58595363462651
H        -0.24433781971910   -1.34554878816681   14.79300859869035
C        -1.30578296618616    0.32707670379511   15.63317391907807
H        -1.02219074940451    0.08925674358283   16.65381253708493
C        -2.17953111299718    1.43254326872423   15.39885946314797
C        -2.71543551341897    2.24201679446079   16.55490406496154
H        -2.14871454752228    1.96942689767417   17.45073580148904
C        -4.18922540634886    1.88937143102930   16.78520098615646
H        -4.79524330439270    2.16440399537092   15.92505340164688
H        -4.56149994739366    2.42689903824554   17.65246993833204
H        -4.30746214191678    0.82332258666909   16.96482276619256
C        -2.53236976039352    3.74356536571647   16.32422097603293
H        -1.49169678755961    3.95921656937592   16.08160018906436
H        -2.79109743154312    4.28517174536327   17.22936663582028
H        -3.17423241216291    4.10455111469193   15.52374954947665
C        -2.60223824207108    1.66215279896879   14.07556706388185
H        -3.34903524858741    2.42264464385959   13.87643955867203
N         0.14929456893032    3.37861014860453   13.13074321105774
N         3.50421553561609    2.19177833307580   12.64461423006520
H         4.00233515968744    3.01223740800667   12.33745197837710
O         1.54732465020965    1.23800301035250   13.21221972121757
O         7.28522233155824   -4.50888119997534   11.65477628646675
H         6.77856868893204   -5.27840250925021   11.93566431113759
O         8.39364275478431   -2.16669036942335   10.87453642278045
H         8.76143098818207   -3.05590329426021   10.97813590144483
Ru       -0.28496006624399    1.67999568796663   14.06782319200775
Cl        1.04525597235799    2.64513497211289   15.71577786601002

