44
CSD_code = BOKDOV | q = 1 | S = 0 | Stoichiometry = C23H17ClNRuS(1+) | MND = 9
Ru       10.68757204168703   -0.57160188969949    5.74806968591152
Cl       10.08012219418025   -1.87172245039672    7.58925941074673
S         8.46886479771006   -1.18064887860783    5.01467053057269
N         9.67618653777622    0.96154561417850    6.67886025252604
C         9.96575997668942    1.17909356778531    7.96252754666861
C         9.36050807650818    2.16963359313516    8.71446109374617
C         8.40933526164091    2.97831714593308    8.11195999846017
C         8.12861831349364    2.77618777298912    6.77272762574121
C         8.77805478828824    1.76340998860444    6.07148252415735
C         8.52186414280342    1.58317489841570    4.63222355852040
C         8.42188593995621    2.66573287164312    3.75879993697955
C         8.26717221320356    2.46535710712282    2.39401745254423
C         8.23771789746191    1.19177005478885    1.85204041782317
C         8.32804200490537    0.09046203325972    2.69677635354713
C         8.44018362708325    0.30968977514515    4.07653677501191
C         8.54042494555002   -2.12092145496951    3.52111213811231
C         8.38757022151884   -1.32081410900112    2.37607354404136
C         8.34684119259158   -1.93837690833319    1.13102092342988
C         8.45690072859248   -3.31529774039559    1.05131788260081
C         8.60340916765993   -4.08955693550662    2.19638576515570
C         8.63644485309876   -3.49818230212324    3.44895606973894
C        12.94403685729145   -0.64580958193251    6.17106709119008
C        12.59509262908354   -1.82969028690660    5.46677513791090
C        11.96429159317778   -1.74382340278839    4.22133118248850
C        11.68164314784639   -0.47195629402913    3.65306069875746
C        12.02883836515384    0.69786218800092    4.33595300164281
C        12.65002416178305    0.60864528140268    5.61126896571485
H        10.69619710680605    0.51429671686175    8.40933908752233
H         9.62697182720450    2.29162134248843    9.75114796698639
H         7.90003550365749    3.74805754669560    8.66959030391746
H         7.39228960184103    3.37706882286750    6.26361141622540
H         8.49432822070335    3.66960837293071    4.14695847430917
H         8.18868758993480    3.32155527188410    1.74278563263953
H         8.14604281667390    1.05263099018850    0.78672817436763
H         8.22316433264713   -1.34610937256079    0.23804846924614
H         8.42352145855254   -3.79608216207127    0.08625942990293
H         8.68434153976163   -5.16171283721387    2.11230483494587
H         8.73908031821643   -4.08765720697652    4.34665531378472
H        13.48807739094261   -0.71622909177432    7.10629579481411
H        12.86674667303296   -2.79556347725282    5.87652899841849
H        11.76063452811211   -2.64277445224392    3.64943160687761
H        11.26592512759844   -0.41258387346092    2.65340745502679
H        11.88469560188416    1.66506346179162    3.87041584378582
H        12.97785468569574    1.51493029013153    6.11085563348933

