111
CSD_code = BOKKAP | q = 0 | S = 0 | Stoichiometry = C49H54N6ORu | MND = 6
Ru        6.72260243836005    9.68764184173448    0.21314204114513
O         7.68032366770659    7.87557058860440   -0.41605683272423
N         5.40615152951384    8.79689006920593    2.75827972484604
N         7.55969833052916    8.64003704495485    2.83639510774091
N         8.54417276378184   10.41611851909615    0.73817539070808
N         4.75154541771231    9.10886537464241   -0.09852507400194
N         5.82561896665832   11.43687615156715    0.50638853838770
N         6.85134800501974   10.41424245860043   -1.60643384136639
C         6.52771834724721    8.98552280555555    2.04154132643903
C         7.10664490531051    8.24182011954106    4.06946916706963
C         5.72828757037253    8.33035743465710    4.01735814884267
C         7.96670047570466    7.82488990791522    5.16497963552620
C         7.65541670216974    6.69316603119058    5.91919424198220
H         6.77270164879223    6.12224126657997    5.67360658297093
C         8.46984334718082    6.30504195375858    6.96453882362974
H         8.21898900886703    5.42679595694024    7.54104371086537
C         9.60871064369442    7.03276462259436    7.27241519723704
H        10.24546138592289    6.72498358240786    8.08841425462699
C         9.92336846187544    8.16056891692863    6.53282543901538
H        10.80366475732707    8.73826516637631    6.77638037277608
C         9.10934478467274    8.55796442393269    5.48896350737026
H         9.33865181892773    9.45967156828114    4.93835884847082
C         4.76236996140256    8.00556383639098    5.05802451516174
C         3.62788623119270    7.24766720961964    4.76891447758173
H         3.46501582745993    6.89670624201324    3.76060190332638
C         2.73063070944370    6.92428005007725    5.76908782518719
H         1.85683752059325    6.33412690029847    5.53340717224030
C         2.95135750967550    7.34590997712195    7.06991325570619
H         2.24855294629080    7.09110063992556    7.84945135989962
C         4.08005453109361    8.09226630739088    7.36743988293032
H         4.25847313808464    8.42166768580129    8.38085926054737
C         4.97851519485596    8.42256829510694    6.37152295748133
H         5.85540574854449    9.00921724667222    6.60359351496803
C         8.87264719723918    8.53478391723619    2.24591612609849
H         8.77499008673402    7.87373855423481    1.36709471454673
H         9.58388686834969    8.13174806879380    2.96699395418067
C         9.31288702444578    9.86902241300903    1.70472553171998
C        10.46583185249070   10.47317998365470    2.17445056010532
H        11.04325169327637    9.98647439697795    2.94609408561121
C        10.88468076563890   11.68547885277404    1.64375393500881
H        11.78606967071198   12.16544923649007    1.98992619240994
C        10.09961458132752   12.24853594154992    0.64908259988972
H        10.36995963007208   13.18722285360967    0.19107909842704
C         8.95864783793495   11.59034824405170    0.23608947120304
H         8.35214834813545   12.03154326967751   -0.54601779631997
C         4.14476870533274    9.08471062695784    2.26303503662558
H         3.36791202639471    9.18033412271291    3.00342803559580
C         3.83326873078166    9.23460747589715    0.93015867465688
C         2.45973324051189    9.49708525960082    0.59721385484980
H         1.77789484994795    9.68288810867009    1.41367324288203
C         2.03610706855511    9.50126960958343   -0.69070555576821
H         1.00260377476888    9.69922550969099   -0.93820261953112
C         2.96934957479392    9.22855676180878   -1.70892450696503
H         2.67177717124205    9.17438615365070   -2.74324239204746
C         4.28248913934032    9.06210983821644   -1.35102414692642
H         5.01942889206480    8.87284390305552   -2.12339382366999
C         5.34454462921589   11.94278521794375    1.64328532124563
H         5.77245074052687   11.54999325965493    2.55750383065448
C         4.35188737173885   12.89228182033527    1.69332721839123
H         3.99952276659658   13.22432037051842    2.65594254610508
C         3.78631839335020   13.38329606229828    0.50572307497125
C         4.33944522291727   12.91826025687296   -0.67111496765289
H         3.97125926377723   13.25527261050570   -1.62421056964907
C         5.35793604359204   11.96006230842581   -0.65805014286171
C         6.00404834160693   11.44337923675889   -1.84856050498757
C         5.84725881844222   11.95644920048370   -3.13689845791187
H         5.15958365579719   12.77173797614570   -3.29290080613250
C         6.55736604374715   11.42763007294560   -4.20382618827526
C         7.44305829151513   10.38198970911200   -3.91162775069501
H         8.03654307027170    9.91863509472027   -4.68091627276049
C         7.55586763393829    9.91919558197415   -2.61797438101578
H         8.20686307384281    9.09385412638787   -2.35248200743165
C         2.61057411173855   14.33810462958585    0.56147502552777
C         2.99628313522954   15.58434662093744    1.36991634783597
H         3.26657930182711   15.32841754776210    2.39042264366675
H         2.15982301006997   16.27888672856640    1.40465239827850
H         3.84324370051045   16.08737832359702    0.90738301539696
C         1.44380098832993   13.60934623954443    1.24385297550114
H         1.69762995060979   13.32827275177847    2.26223811155503
H         1.19658196909277   12.70361993390005    0.69382195715765
H         0.56576692148645   14.25090433817419    1.27296546807521
C         2.15423857351519   14.78697195380757   -0.82880556547196
H         1.82979941323284   13.93755871096870   -1.42534524270486
H         2.95169391310240   15.31000063365936   -1.35251448243463
H         1.31254067970173   15.46939598808191   -0.73143378905969
C         6.35168101627730   11.98289084015024   -5.60185541477919
C         7.21102446137793   11.26713297826696   -6.64675551707388
H         8.27041394825294   11.38258257056957   -6.42899576399300
H         7.02129970620151   11.69703684786350   -7.62815817463979
H         6.96943769480963   10.20781408949225   -6.69208956320394
C         4.87641768349519   11.81115926938682   -5.99092357756454
H         4.22142602670726   12.35471292909733   -5.31541479228607
H         4.59975819735372   10.75938173965168   -5.96040981407959
H         4.70965005483001   12.18292122023184   -6.99960994247740
C         6.72295421272105   13.47266911072348   -5.60982371865293
H         7.76288501713549   13.60358971126436   -5.31701377691473
H         6.10115214099685   14.04082813135682   -4.92311798896850
H         6.59167679247359   13.88485974517936   -6.60792845787435
C         7.27955319922981    6.56270047636063   -0.49256328374795
C         8.55487394807535    5.68091949236210   -0.50002113677797
H         9.19733675073677    5.98039911914438   -1.32471381186682
H         8.29726933680754    4.63071890218508   -0.61247581926764
H         9.10968849930350    5.80762503152216    0.42796026402934
C         6.38906719449304    6.11754822249521    0.68867102738683
H         5.51653121274098    6.76675933033211    0.74459282350795
H         6.93509198918015    6.17542291470685    1.62897764578878
H         6.05693872439087    5.09132234520779    0.54468935746126
C         6.50146964805789    6.27492565152168   -1.80061418883458
H         7.04996862229939    6.67638897182896   -2.65052372352743
H         5.52243467204261    6.74406711229616   -1.76036964020368
H         6.36847719459751    5.20436264395160   -1.94233652593434

