38
CSD_code = BOKPUO | q = 0 | S = 0 | Stoichiometry = C15H17N2O3V | MND = 5
V        -0.11525823794952    7.55839336157101    5.15929066386806
N        -1.05435608569379    9.22687792620371    4.31707942103184
N         1.54417979738980    8.76392932939917    4.57091045594413
O        -1.71277433066313    7.26473283627700    5.85350193522574
O         0.01845757537575    6.61422494986005    3.95431859603342
O         0.77723698275841    7.12947207519993    6.33243824165152
C        -3.20932889746726    8.15563909842885    4.25407639507360
C        -2.85486801471014    7.24259881489410    5.28166591041681
C        -3.83002830376523    6.30077088911103    5.73736332812232
H        -3.52345254839554    5.62632340376016    6.52448288642127
C        -5.06654298718632    6.25355886677673    5.18711904265028
H        -5.79185316077586    5.52990265156780    5.53245158375260
C        -5.44897533407500    7.13917529208502    4.14520941180186
C        -6.73622938679816    7.06350194285374    3.58709874093552
H        -7.42187700478376    6.32259839076491    3.97276384285247
C        -7.11816764395397    7.90412008856207    2.57538798191835
H        -8.10840069155780    7.84143375257422    2.15002057619651
C        -6.20887404563325    8.84601888930179    2.09067948638338
H        -6.50241732796346    9.50656026482094    1.28763060092315
C        -4.94621279379431    8.93993890398563    2.62013410767644
H        -4.27681176384278    9.67672169216948    2.20376639662391
C        -4.52116583992374    8.09991893302522    3.66619630416093
C        -2.25790838974738    9.13493827272480    3.86941123072761
H        -2.58577040862823    9.89625335930223    3.15327598932089
C        -0.20730526525104   10.27002318630947    3.81273374094369
H        -0.07428728047328   11.04043549901499    4.58523950953737
H        -0.63465552718827   10.75984282152115    2.92212565107692
C         1.13511317024755    9.62330224856156    3.46720570930116
H         0.99561254612402    8.99019083372638    2.58466719114431
H         1.89422831728542   10.39095961190626    3.24818775864805
C         2.02070317033170    9.55862654741766    5.70058657580490
H         2.31726133861327    8.87591181595340    6.49699398135147
H         1.22866418754802   10.19998549657600    6.08756404198667
H         2.87922547395880   10.17916453110701    5.40707884939573
C         2.62676439767010    7.87563354436141    4.14814272253218
H         2.28393805920966    7.25760220643954    3.31890022907147
H         2.86900076381401    7.21117213697517    4.97739114464223
H         3.51143548989508    8.45554553491052    3.85110976485131

