45
CSD_code = BOKPIC | q = 0 | S = 0 | Stoichiometry = C18H21N2O3V | MND = 5
V         8.69161534602345    2.66539138543218    1.68393574711346
N         7.50185010004054    4.35680457239750    1.88191638431726
N         9.89262940040262    3.89815833287179    2.97637901663219
O         7.64876316888268    2.33910536146237    0.29201326027038
O         8.19077491492546    1.78538317712823    2.83967611972025
O        10.03564989158336    2.17518966289449    1.12590058590694
C         5.57448088405413    3.28466981964499    0.91814796484165
C         6.37332762508929    2.33578138162524    0.22778190446873
C         5.73267113561076    1.37729174006271   -0.61894560253826
H         6.37496567224990    0.67452733368895   -1.13064225370722
C         4.38507333387313    1.35025799747885   -0.74921426801845
H         3.91151531479826    0.61434297261758   -1.38415151115202
C         3.55462723858207    2.27359063728830   -0.06060555858411
C         2.15860535448658    2.21974935837318   -0.20969386555970
H         1.73887648084465    1.46606457650095   -0.86050665088540
C         1.34282900903947    3.09752376731667    0.45377896824215
H         0.27079119834479    3.05190871664601    0.33511167982433
C         1.91160319042182    4.05540436056372    1.29511384033483
H         1.27217797365119    4.74517798050010    1.82676585860503
C         3.27252100136828    4.12842766025536    1.45651734418632
H         3.66301246627437    4.87867906368684    2.12648114454292
C         4.14268147922523    3.25050557806269    0.78381285127197
C         6.23146181036793    4.27840445010206    1.68771457560146
H         5.60815621723870    5.06490683601341    2.12693842470489
C         8.01027249011138    5.41734929467609    2.70151722789001
H         7.20836373114802    5.94568231479662    3.24411443225546
H         8.52562195445584    6.15411600759324    2.06904449080398
C         8.99191043172962    4.79210789730058    3.69483475762104
H         9.52014161091249    5.58283073994728    4.24243742491194
H         8.42300774811233    4.18207179224867    4.40475985799516
C        10.89005618421465    4.61577207961820    2.17016384012518
H        10.38114827140602    5.29937384439958    1.48414118003783
H        11.39572218747288    3.85405893652468    1.56763399060589
C        11.93183753102333    5.37364098737074    2.99679633450563
H        11.46725307299750    6.17950006345149    3.57033454235905
H        12.64806463846512    5.83317296579596    2.31357147487698
C        12.64492269619762    4.41094181233746    3.94003238660608
H        13.20718140926399    3.68297761696974    3.35255860058637
H        13.34933467467514    4.95200486828342    4.57488064158733
C        11.61092336294306    3.67801160249215    4.78808460058967
H        11.11093737080214    4.38131064845386    5.45783591750598
H        12.09933343015933    2.92540048440073    5.40784847616677
C        10.59536998179748    2.97785268640595    3.88419976435053
H        11.09892681849062    2.24132918624623    3.25058332835792
H         9.84511019624240    2.44344744807164    4.47240077012191

