55
CSD_code = BOKPUP | q = 0 | S = 0 | Stoichiometry = C22H29AuClPSe | MND = 2
Au        3.25839172919625    4.77165412849673    4.92854832307162
Cl        3.38763355068791    5.06666313594688    2.66725335101354
Se        3.47268923346372    4.88499242573578    7.32105739553903
P         4.73067730071331    6.62261082255926    7.03042317317005
C         5.62699407548871    4.07043492575804   10.13680825801322
H         4.66640035136321    3.72328712652813    9.75152270279521
H         6.12584085652600    3.23442575893779   10.62662535428539
C         6.50577048930819    4.53501243085117    8.91559264555863
H         7.46990145870596    4.02739496073395    8.96422084835661
H         6.00562138075075    4.22532218505493    7.99973023702503
C         6.72981801120328    6.01721943078487    8.94938726160157
C         5.83225898545569    6.97634526766812    8.45041287175325
C         5.83434799590921    8.25229260875965    9.01223687989178
H         5.07867435329711    8.96896170236925    8.73388763344984
C         6.71982307530609    8.60924986674301   10.02031580166627
C         7.79837714476805    7.76240476405254   10.24891301488763
H         8.58924659106453    8.06303224730390   10.91930074493657
C         7.78744269703768    6.48672145713717    9.72613444917145
H         8.56829312064711    5.79561352589488   10.00828312254521
C         6.42098828795230    9.74898064962456   10.95102500393769
H         5.70962024428186   10.42791266127079   10.47980504826310
H         7.33021735990474   10.30910567600709   11.17102175787535
C         5.81280326836316    9.22250157243287   12.30495076219186
H         6.53840753829317    9.37213800436814   13.10449276835512
H         4.92345283846491    9.80888487434262   12.53749583259570
C         5.47872904083018    7.76257278872278   12.19275796927087
C         6.37555373597595    6.78894912590698   12.61644331749604
H         7.17283613963359    7.05533497705492   13.29577744317213
C         6.33460374562857    5.51492444893512   12.07983906096797
H         7.09758243041554    4.79815532561776   12.34788201502747
C         5.40018370331138    5.19535916669860   11.10184823446002
C         4.34646662761240    6.08084199230864   10.90006642978983
H         3.54240452914741    5.80139630880550   10.23194477131717
C         4.38215684023275    7.34917365626263   11.44293187215996
H         3.60254742245243    8.06031245673668   11.20659180644189
C         5.90918553118125    6.60389218521173    5.57593072412369
H         5.26873323578127    6.57695629972108    4.68427256352245
C         6.77512498238330    5.35256477728345    5.57937494338609
H         7.47059510933286    5.36096682921265    6.41724636638970
H         7.34753408353017    5.30618694288735    4.65505602092195
H         6.15766621833391    4.45500059991288    5.62935559832642
C         6.76414328541718    7.86576295966396    5.56992234240901
H         7.38274851684465    7.92085505464521    6.46473164035675
H         6.15632137261522    8.76560147342789    5.50928118447641
H         7.42009235686488    7.84527811435783    4.70172870436764
C         3.64702341784013    8.12419617595442    6.78282679150705
H         4.29504736434348    9.00035041393644    6.89680773912314
C         3.01809779819788    8.17370094190259    5.39590143744289
H         2.42955362529676    7.27781779487176    5.19643067207287
H         3.76262641176642    8.27170419938794    4.60894078256512
H         2.35074005392205    9.03232069715085    5.33687185103271
C         2.57360508740682    8.11710774895545    7.86617998668589
H         2.02658429021303    9.05832112585442    7.86520860344924
H         3.00771209522140    7.96135501699675    8.85327770025707
H         1.86380901014997    7.31177819218981    7.68012618543243

