67
CSD_code = BOKREZ | q = 1 | S = 0 | Stoichiometry = C24H40IrNP(1+) | MND = 6
C         3.70821340316773   10.13546018953069    6.01918356735410
C         4.57907431844408   10.81984919587979    6.86726634012833
H         5.63473265435320   10.62101775061564    6.82614318424914
C         4.11867011366561   11.76524478525419    7.76190118157300
H         4.81353306980065   12.28197484502208    8.40502753455677
C         2.76430636606711   12.03864841687278    7.83111567434142
H         2.38624910811629   12.76021184657867    8.53779609859130
C         1.89202038919966   11.38910879607210    6.97995959002917
H         0.84153657835833   11.62601874110060    7.04919805725044
C         2.35086520069795   10.45410730308734    6.05688978366312
C         0.62140132926483   10.84461272773168    4.46534030561200
H        -0.06629312055628   10.39212067966968    3.75570448182023
H         1.29301125822790   11.51768288121597    3.93301809802113
H         0.02252364335874   11.43764928334984    5.16079367302112
C         0.52944985451722    8.94837281689923    5.95743326924497
H        -0.19360570005069    8.43892922758522    5.32632641281913
H        -0.02051755623670    9.52776745701128    6.70487892424558
H         1.13074377616824    8.20300232230574    6.47541000431438
C         2.41225584813681    6.15694403520073    3.35866235775087
H         2.97925471316056    5.65412445747248    4.14102934937630
C         3.16164120630036    6.77896916234575    2.33899301495534
H         4.23889328497012    6.68589721596072    2.42879161275665
C         2.69680611818846    6.88458591339671    0.90017365682773
H         2.09259261414507    6.01197386701583    0.65514545613739
H         3.56697480360318    6.86496313231416    0.24395965454942
C         1.91471833419039    8.18266011047616    0.64060852783116
H         2.60800868884733    8.96090810516883    0.31751571356086
H         1.19889041863043    8.03605618495497   -0.17337620711942
C         1.17170229134755    8.68404276070308    1.85301643736361
H         1.01113511801721    9.76096421265650    1.84003030873178
C         0.34809573390981    7.91254113975038    2.64852074579106
H        -0.43356896573943    8.41679043996255    3.20658186223348
C         0.07023303720504    6.45053952301017    2.40176486196371
H         0.13375437212334    6.24428860850826    1.33428631205412
H        -0.94948707683244    6.22178327585020    2.71376774886613
C         1.04060068270108    5.55367434079326    3.18684991915989
H         0.62750228157264    5.35831821241929    4.17862701203550
H         1.14551742257884    4.58481176158103    2.69001104340180
C         5.12691785126127    7.58196360199639    5.98122611393068
C         6.13925632375244    8.09862332853193    7.00211627421370
H         6.93977217715768    8.67235014456440    6.54724358278880
H         6.59386590203378    7.23729109149685    7.49034712660702
H         5.66036021811314    8.69090323340357    7.77652230155906
C         5.81159259788125    6.53738304696937    5.09919289503002
H         6.69882388641111    6.95113153927186    4.62577975535848
H         5.14263137637055    6.16624286493277    4.32791453040319
H         6.12601846493156    5.69107802227083    5.70731461247374
C         3.96676966814130    6.94713653336630    6.75665589661988
H         3.51679717253824    7.67612713050313    7.43007247650021
H         4.33011309897575    6.11622303066740    7.35758321427541
H         3.19675274400389    6.57196041902103    6.08474209179976
C         5.45290494411142    9.81580229674911    3.71685827675280
C         6.81449406106811   10.18505419077976    4.29573851284638
H         6.73724951870747   10.80652885724415    5.18174779685925
H         7.36186949174810   10.75994562486108    3.54946316350309
H         7.40376259727272    9.29991576350887    4.52034517951182
C         5.67696686994827    9.01134974823652    2.43592732007157
H         4.73419442225767    8.84108033109110    1.92459416435898
H         6.15277334365270    8.05604788664388    2.63926404936953
H         6.32889838541421    9.57050946788342    1.76731218768656
C         4.67262523927913   11.08136794185034    3.34900073455601
H         4.59263033076119   11.76532442512984    4.19134921711358
H         3.66767239326365   10.81732143185685    3.01189813603420
H         5.17396436346069   11.60285865671996    2.53632477616268
N         1.41056383714526    9.80755725465908    5.14714733598341
P         4.26707446490572    8.83927683731729    4.84369298835380
Ir        2.31664864181169    8.26792957315022    3.66757972021323

