41
CSD_code = BOKRUO | q = 0 | S = 0 | Stoichiometry = C16H16Cl2N4O2Pd | MND = 4
Pd        0.94269458431235    0.00493941025375    0.80121473760128
Cl       -0.14219257428357    0.19607332895429    2.80027447270685
Cl        1.99139687863388   -0.28133027232179   -1.38719042152485
N         1.27254764020232    2.08975884595402    0.88181830664816
N         0.92805688632585   -1.98604322750020    0.94938981747088
N        -0.77160028403166    1.47366740930571   -1.24416545312865
N        -0.43888465477726   -1.35048648396552   -1.81587112926085
O         0.80849208357002    2.74603353717435   -2.26817051671050
O        -1.92578559564074   -1.86858710759794   -0.18817417435945
C        -1.16592777458300    0.93848254337978   -2.53515008665005
C        -1.44239946279121   -0.56938286469545   -2.51477223257690
C        -1.75122381252128    1.37765363686704   -0.17217415297778
C         0.87715894752146   -1.42213594583340   -2.30318857956571
C         0.65582375214082    2.95448075817415    0.07170388241919
C         0.56860547373490    4.30963350382444    0.35760988137236
C         1.12313091210407    4.77628411034427    1.53814156238068
C         1.76883735668109    3.87547806834181    2.37363838425126
C         1.82322456858366    2.54245299716073    2.00830284264545
C         0.28647585802028   -2.73784666501121    0.05026447660167
C         0.60682261874607   -4.06281074586826   -0.22023045292258
C         1.60285166697250   -4.59112918579234    0.60832834421073
C         2.18623423760546   -3.85841037322379    1.63350917714036
C         1.84894057426953   -2.51951327244201    1.74434020132708
C         0.21814975132047    2.40259952702381   -1.25937016382611
C        -0.80452878047885   -1.97480567501889   -0.63358855058284
H         0.07747061150972    4.97163908898601   -0.33772242889112
H         1.06241212102557    5.82233443169579    1.79606180726457
H         2.22470689948901    4.20034589279259    3.29489456030314
H         2.31766258870170    1.80477656364136    2.63402697088233
H         1.91906364697017   -5.61450642585467    0.44985421191729
H         2.91585522301956   -4.28807131369549    2.30593236003498
H         2.31631663626440   -1.85856979556382    2.47524119832932
H        -2.07213196123020    1.44434632114507   -2.89107797068148
H        -0.35045379282844    1.17233510974058   -3.22522642671015
H        -1.52165642734034   -0.92046104205319   -3.54819710975993
H        -2.38399990974022   -0.77774796840240   -2.00069353164650
H        -1.41386800341865    1.92340777561572    0.71009072454332
H        -2.70027476924004    1.80997061181124   -0.50632083982551
H        -1.92775542719914    0.33468943151434    0.11200677655933
H         0.93389533580827   -1.10546928604240   -3.34316872329932
H         1.30975637657140   -2.41407525281759   -2.15979175170912

