67
CSD_code = BOKREY | q = 0 | S = 0 | Stoichiometry = C28H32I2N4Pd | MND = 4
I         0.08612530470311   -0.81460145298345   -2.48842563700257
Pd        0.00273808214544    0.00454710390219   -0.00197103452402
N        -2.80334041115516    1.14357078090285   -0.47263661654702
N        -8.70399442464305    3.98744255479605   -1.60071020736450
C        -1.75195815767900    0.67665573815375   -0.28615976292242
C        -4.01124287481649    1.71189425329579   -0.69909521722467
C        -4.56545253823132    1.60517194056044   -1.98579458236818
C        -5.79133651773876    2.20828621325930   -2.19988558255003
C        -6.43435268524117    2.88445170495693   -1.16371540457562
C        -5.86354646215552    2.97279137499132    0.10545829848934
C        -4.63900600036787    2.38417404381884    0.36317079449511
C        -7.68820488534304    3.49416626494205   -1.40546047168955
C        -3.79562527684446    0.89801919887440   -3.07309689073577
C        -4.68100984752787    0.36004018591195   -4.19345980723563
C        -2.74287318887492    1.85733567667138   -3.64342435803596
C        -3.94484714172647    2.48040467693687    1.69876280831504
C        -2.90671486124718    3.60859352674382    1.64112739611094
C        -4.90126505302619    2.70304650833104    2.86674639701194
H        -6.26279407152854    2.16365252438030   -3.16812949143125
H        -6.38956474185950    3.50620346186028    0.88040392356766
H        -3.27064696454921    0.04511448651806   -2.62600097568140
H        -5.09301998901111    1.16728919760940   -4.79416065523436
H        -4.08450652485858   -0.27174787165877   -4.84662434280479
H        -5.49749681288438   -0.23614545801269   -3.79156184383332
H        -2.06502663060627    2.20842445214921   -2.86707825160467
H        -2.15328336131509    1.34637999029181   -4.39993389157053
H        -3.22417654758893    2.72204770899059   -4.09568969771180
H        -3.41279829030651    1.53864881911982    1.88023152065079
H        -2.37041695992465    3.66132463116037    2.58484306851647
H        -2.17985782287103    3.43800085514242    0.84861688281646
H        -3.39526260256839    4.56362656480578    1.45905520643309
H        -5.32978739805983    3.70205179017470    2.84219551972332
H        -5.70589697836757    1.97089912952413    2.85547562352238
H        -4.35427943378209    2.59676355816001    3.80007938241571
I        -0.08096392761109    0.82374575992702    2.48523722419842
C         1.75669621515477   -0.66956795862287    0.28227085150203
N         2.80646039199527   -1.13928623791151    0.47088280064165
C         4.01242339509643   -1.71115010862762    0.69881693806892
C         4.56529938209091   -1.60618727875346    1.98622624064936
C         5.78881674205021   -2.21350381453908    2.20198794027532
C         6.43089774241416   -2.89199034793236    1.16674066132483
C         5.86156751550515   -2.97832821533097   -0.10321648582745
C         4.63941157860477   -2.38550770693872   -0.36258884280218
C         3.94682188626597   -2.47937625087776   -1.69916151981230
C         2.90551794889236   -3.60472315093653   -1.64334078258159
H         2.37040899177378   -3.65565507476480   -2.58783238628002
H         2.17802200433852   -3.43236364521756   -0.85178672190338
H         3.39117072388478   -4.56116362212640   -1.46089702940082
C         4.90426674347012   -2.70424440588791   -2.86588051375110
H         5.32981030767784   -3.70451816120834   -2.84122719017948
H         5.71103862534261   -1.97448191724229   -2.85305802193635
H         4.35893918231119   -2.59586990393328   -3.79994157538804
H         3.41761480653970   -1.53609921168443   -1.88103867778353
H         6.38676742173494   -3.51358148184534   -0.87744463608930
C         7.68209493056960   -3.50640444803030    1.41024036337115
N         8.69537667431996   -4.00421310816374    1.60675260809470
H         6.25907386251586   -2.17047816579734    3.17088475777008
C         3.79649244885548   -0.89639175134352    3.07251256714542
C         4.68248127874736   -0.36040257904853    4.19335412759054
H         5.09148256616633   -1.16853527703309    4.79491918617685
H         4.08731778619797    0.27360139485758    4.84558688896856
H         5.50115315255487    0.23302474804310    3.79181736338539
C         2.74061046536529   -1.85254323479731    3.64234768971256
H         2.06242968796008   -2.20203049541204    2.86555957557274
H         2.15183177870887   -1.33964564559455    4.39817589930243
H         3.21913602409414   -2.71842097959855    4.09533445324881
H         3.27425373626594   -0.04223185790731    2.62461414731596

