84
CSD_code = BOKWEG | q = 0 | S = 0 | Stoichiometry = C44H31IrN8 | MND = 6
Ir        3.43369119784691   14.39802596591519    4.62500626517872
N         2.15992309671124   13.23697806542276    3.59215299599217
N         4.83943280998176   15.58109022842542    5.54030301606482
N         2.25911912024030   16.17846749128197    4.75518503814034
N         1.81044872345137   16.37982616664694    5.96569220049899
N         2.36874302714162   14.19145792547183    6.45739643731163
N         2.55606556475912   13.28980204058702    7.35262154646619
N         2.01128165529789   21.45740214695401    0.59806419272550
N         2.91330369964417    6.77667579884560    5.83817948886253
C         1.88558229561548   15.40043299203439    6.84381683037817
C         0.96161050549832   13.63052904844096    3.15513084177057
H         0.66175978288878   14.63955483001443    3.40497518316915
C         0.12012132453467   12.81829722103159    2.42312362166112
H        -0.83875219757796   13.18793781421977    2.09784116262727
C         0.53801906026553   11.52800931228064    2.11861636456774
H        -0.09133690372200   10.86681320287501    1.54293488308018
C         1.77105716555190   11.10877134211339    2.57244682288158
H         2.11935734434071   10.11179857187145    2.35817431644062
C         2.57574095171206   11.97287830531199    3.31674031415747
C         4.49050790698556   12.66808863885599    4.60627069121667
C         5.71152858987945   12.38783897180472    5.20917096151766
H         6.22714648047187   13.15743871097022    5.76843298507213
C         6.28971555124231   11.13338987445649    5.11652780447392
H         7.23616062999167   10.94048470092299    5.60166613218591
C         5.66278744618630   10.12137917992993    4.40481151210935
H         6.11475677724061    9.14307576816669    4.33802923589003
C         4.45488262755731   10.36592769703493    3.78699374449884
H         3.96993943513986    9.57031072348610    3.24105509251472
C         3.86781295652779   11.62804182519121    3.88332522092382
C         4.97251396912149   15.77351456099252    6.85246934061499
H         4.42191879204753   15.11408820431644    7.50904429304525
C         5.77817848977594   16.75414143145417    7.39605365599904
H         5.83863551591461   16.86825844530650    8.46607605431323
C         6.48986595029414   17.58012337020350    6.53647005678754
H         7.11245604458792   18.37297146478049    6.92215850281175
C         6.39769152894616   17.35496285608236    5.17873921510715
H         6.95460098262868   17.96749717021376    4.48924500901424
C         5.57637739143159   16.33714471188145    4.69093386864009
C         4.54993298114239   14.92553691643995    3.01367827791232
C         4.47203919226827   14.47351495720625    1.69918736777984
H         3.81144352536915   13.65446187051907    1.44496536204592
C         5.22782464368535   15.04817465080203    0.69204227135890
H         5.14669678264111   14.67657599700133   -0.31956913712708
C         6.08614444878062   16.10066178526309    0.97357073654102
H         6.66504614714175   16.55481010574332    0.18328815877759
C         6.20713870389778   16.55654077764727    2.26884095256459
H         6.88986084054718   17.36537397453841    2.48217952809793
C         5.45631389697436   15.97032545444781    3.28916475061607
C         2.16960168797787   17.26848815775433    3.91886926403384
C         1.96498541562795   18.56692098091976    4.41356154063925
H         1.84933974338465   18.69995294237140    5.47806146517695
C         1.92117234187221   19.64215369469504    3.56033649614904
H         1.77072624917953   20.64060109617162    3.94500370187883
C         2.07670484394153   19.45205644050435    2.18321102352692
C         2.26433084450963   18.16070736939174    1.68053390079801
H         2.37481654331940   18.01425249398718    0.61615223251917
C         2.30629441442735   17.08604526933090    2.53578186179389
H         2.44754734275331   16.09043094521297    2.14689440452507
C         2.04162951703680   20.55633189647153    1.30864122208984
C         1.39729934638361   15.69799986481176    8.19533632052865
C         0.80357773728256   14.73953600355561    9.01148889147817
H         0.67894500837173   13.72742247314269    8.65857800454046
C         0.35631914808748   15.07852059098544   10.27440841384750
H        -0.10609383475366   14.32181347436158   10.89229702206770
C         0.48620888417246   16.37266863965709   10.76047326869069
C         1.07601378490379   17.32947224723339    9.94072965082473
H         1.18405686900941   18.34319230117440   10.30034320844841
C         1.52418173594890   17.00052913132564    8.67910406456598
H         1.98312571112138   17.74847980919990    8.05002851782034
C         0.02275964232812   16.73260930294346   12.13856113457827
H        -0.43414099814965   17.72013759034426   12.14662722952708
H         0.87047964397429   16.75134767265825   12.82458275587805
H        -0.69699157033506   16.00704955843316   12.50949361780245
C         2.65713919811818   11.98112124941497    7.00560154779295
C         3.63843996184217   11.17337779620144    7.59814122121414
H         4.36435145315266   11.63208470211385    8.25114889758367
C         3.70252128682996    9.83410486071167    7.30640704814259
H         4.48043510694028    9.21769318402346    7.73223324548851
C         2.76138253879660    9.25413842977447    6.44763945866050
C         1.74080471375804   10.03897763325400    5.90537527175005
H         0.99863287886761    9.58303537478985    5.26541133395768
C         1.69351096125123   11.38486582555189    6.17299088929230
H         0.89765499336279   11.99745331647180    5.77205016712219
C         2.84315040211346    7.88732441569880    6.12067853797798

