84
CSD_code = BOKWUW | q = 0 | S = 0 | Stoichiometry = C44H27F4IrN8 | MND = 6
Ir        3.85253724143410    6.08449299760920   28.62996041248364
F         7.04676230861089    5.60131195094784   33.00819394203110
F         3.19612444128273    2.96861120790070   32.82356660585523
F         6.49761253061957    2.08448602033804   26.07408913152472
F         8.79047991278382    6.09633214903709   26.75875736936327
N         2.60255929019567    4.47992146804615   28.86101324902447
N         5.18629628365532    7.58376895175092   28.53385831839808
N         2.94633851907759    6.54518674713399   25.72861342566867
N         2.73920169904831    6.78536276405690   26.96743980343203
N         1.27622027553318    7.34447796468240   28.65870547190747
N         2.23570545404033    7.11103770605167   29.50533355914954
N         8.94948575274778    6.51909075908419   22.75641903518308
N         0.57172346142110    7.23141400736357   36.01815834344315
C         1.49900656447957    7.17926297993565   27.36906285104586
C         1.70320606446019    4.06876620539065   27.96903842603216
H         1.75826870563794    4.50030032447075   26.97945084794769
C         0.73150453677025    3.12912586449544   28.25104022862206
H         0.02583783232584    2.83793720348086   27.49044944849737
C         0.69004448844659    2.58850275919117   29.52749772908057
H        -0.06629088827511    1.86841280952076   29.79851544923807
C         1.64600108567519    2.97467824516329   30.44634279289032
H         1.63630539560104    2.54778576144673   31.43311817662094
C         2.61490843348450    3.91545273172292   30.09311435934487
C         4.57635794658095    5.32020039798332   30.36712559278251
C         5.70321332326623    5.71347654813925   31.08039193814465
H         6.40555355108930    6.42709850385217   30.67561382775532
C         5.95324866830263    5.19493209994129   32.33616126189359
C         5.10657066449145    4.28023832364343   32.93554386886976
H         5.30128375959929    3.89252326996656   33.92139990367349
C         4.00179173091019    3.86899465510459   32.21994205544467
C         3.71691233218460    4.35307265152577   30.94145856058347
C         4.94433607477431    8.82298594818564   28.96422161221792
H         3.94520929353883    9.02286483798182   29.32744504432441
C         5.89387008889012    9.82454907460927   28.95710072746467
H         5.64282037458338   10.80967254917918   29.31502161412114
C         7.16567558941307    9.52697614838802   28.48644112345416
H         7.93944713037863   10.27859267100767   28.47426698947151
C         7.42468734174002    8.25090292957718   28.02702399923780
H         8.40353578590114    8.00693106915965   27.65379518554596
C         6.41902440570189    7.28285773551101   28.04734998553318
C         5.37465405285794    5.13060737819000   27.68928252430392
C         5.39058854294604    3.83276166991586   27.19328536319557
H         4.52764668918244    3.18980262382942   27.27956722396454
C         6.51771425352440    3.33836212009280   26.56585750123012
C         7.66933024782808    4.09019578331415   26.41663754034198
H         8.54199726388242    3.69659311404318   25.92291712966987
C         7.66091327450179    5.37502485860118   26.91706159229004
C         6.54229130140890    5.92004501545067   27.54941258826701
C         4.19762040360061    6.50957389737010   25.19728235525031
C         4.56915044487960    5.44683209216391   24.36231723881518
H         3.89440821806933    4.61314833035393   24.24440424001820
C         5.79304887146001    5.44820681832094   23.73957620504383
H         6.09192726816508    4.61595568079326   23.11964171294092
C         6.66405945686527    6.53077129349897   23.90372211334632
C         6.27962301434844    7.61743403540606   24.69192076627052
H         6.94579641888553    8.46142849019731   24.79830035640907
C         5.06565829652054    7.60462249435171   25.33678089257306
H         4.74721616550559    8.45253535510699   25.92665157342833
C         7.92391362199210    6.52633054041840   23.27065114955088
C         0.37817139031489    7.50313457853312   26.47978501704804
C        -0.60106851663857    8.38398486945630   26.94394705618813
H        -0.49184032368542    8.81143466243788   27.92887998862777
C        -1.68749477651617    8.71008979315550   26.15962862347878
H        -2.42982588848852    9.39893576269597   26.53725112012089
C        -1.83834570597077    8.16897305414829   24.88796661540774
C        -0.86838652844856    7.28516902316846   24.43158527447128
H        -0.96990033372674    6.84891438321845   23.44789297115781
C         0.22437626917352    6.95236011278682   25.20857812353749
H         0.95752291752042    6.26320100386193   24.82249000190255
C        -3.02130542358295    8.50898323469692   24.03521498684923
H        -2.71982158711623    8.66004591109369   23.00057374444042
H        -3.51522486708231    9.40848744983510   24.39411640867514
H        -3.74361128661991    7.69218796196492   24.05562429342479
C         1.87119147185792    7.18638183996828   30.83514478720472
C         2.84826125889404    7.43143718351124   31.80808296426555
H         3.86578101108983    7.61363925137491   31.50111795549595
C         2.51593616356256    7.44469475069995   33.14203332367060
H         3.27163859104675    7.63110522753712   33.89060825905930
C         1.19410828340771    7.21904672435204   33.53730185831775
C         0.20917987029434    6.99458952266182   32.57091623575536
H        -0.81158778203919    6.82562918137992   32.88115798065301
C         0.54351423282936    6.98126929187469   31.23774430489624
H        -0.20270847542569    6.79875069760510   30.47902125340346
C         0.85270477837036    7.22253394396005   34.90602451772244

