49
CSD_code = BOKWEE | q = 1 | S = 0 | Stoichiometry = C12H24AgN8S4(1+) | MND = 4
Ag        3.11863760843978   10.88309436759736    1.35078673277750
S         4.14624183587178    8.96363653795397   -0.28441530583686
C         5.73338384212907    9.02597610594280    0.23293604832093
N         6.78067664089565    8.98521814761334   -0.59148282802435
H         6.69785647198933    8.87008770507776   -1.58652370536801
C         8.04286060360666    8.97455790736707    0.12016618594149
H         8.70436485450148    9.75968600682087   -0.25156218335407
H         8.54209560992590    8.00741434342641    0.00036093027064
C         7.59782473439568    9.21632049362396    1.57520033038577
H         8.04038473641707    8.50321999039356    2.27255835390956
H         7.82580672282411   10.23259255066135    1.91069943860128
N         6.15850764914979    9.02245547515149    1.50554572864979
H         5.56786660493352    9.33108936570561    2.26316864985856
S         1.55213879531066    9.56521413072329    3.13603960312405
C         1.77953719154817    7.92416996341059    2.92063973183968
N         2.64934179955865    7.33297794953105    2.10285823095089
H         3.12689835535852    7.82431117319158    1.34600925246022
C         2.50531106527475    5.88883587897443    2.12161935966061
H         3.47585999986398    5.41364890135026    2.27818062406889
H         2.09207160318426    5.53389415144063    1.17247547490502
C         1.53598757613259    5.65505562546107    3.29781239592548
H         0.69136788934853    5.01899022932448    3.02428391353297
H         2.04179365612012    5.21325069724839    4.16247095952383
N         1.08583941436387    7.00060077076124    3.59780131726532
H         0.49288247655182    7.22363173353574    4.37792390118883
S         1.55102451807226   12.73090080396111    0.16263479181021
C        -0.03205259882340   12.24354471373638    0.34487307990802
N        -0.48257737506372   11.19651145347055    1.03740269867566
H         0.09054435458942   10.66036027828494    1.67766547557793
C        -1.93182713386155   11.13523084517378    1.04444279555433
H        -2.31833042158025   11.34583485369725    2.04677481596258
H        -2.27241540739908   10.14303896643344    0.74035506931725
C        -2.32503512654354   12.22961566889671    0.03110610701016
H        -2.72716681152562   11.80490861535994   -0.89451299895321
H        -3.05435935892258   12.93359271717943    0.43835042877099
N        -1.05985934676450   12.89230646308132   -0.21573172971494
H        -0.94126985214575   13.62560862314855   -0.89246234072552
S         5.36855066212652   12.07327352209906    2.23383526449518
C         5.00333653193501   13.69140704082801    2.36327751662078
N         3.81602752475583   14.26649684135745    2.16488487658782
H         3.04270775495151   13.80134694590699    1.70676491681283
C         3.89368478235802   15.71201794690491    2.26630997868706
H         3.11784651378176   16.08711586399827    2.93690342479669
H         3.75924602853235   16.17202019901721    1.28218525466442
C         5.31395254749928   15.93876589765983    2.82122024922940
H         5.88065944775372   16.66574296757295    2.23519097562921
H         5.29698564535346   16.26679859279574    3.86579711757427
N         5.90458671244778   14.61964216871136    2.70757662347030
H         6.82390267082592   14.39338780829675    3.04390246767445

