69
CSD_code = BOKWED | q = 0 | S = 0 | Stoichiometry = C20H36N8NiO4 | MND = 4
Ni       14.67191730410846   -0.08487204761874    7.13178605405145
O        17.48032294191506    0.15252310031897    8.18114988765734
N        16.45637702532085    0.71284140278657    7.39596896005900
C        16.85360283924740    1.43718294094662    6.36865587590024
C        15.77552544538650    1.78878213909645    5.46936578093754
N        14.78459321184489    0.92549631633487    5.46316159216713
O        13.60742771911868    1.24805302585032    4.70534617103418
N        18.13795050465127    1.87311300730346    6.08395640165899
C        18.66862476284433    1.48797452594816    4.78880495165893
C        19.08732244686338    0.01824433920401    4.73893197893048
C        19.11028094477495    2.07547218469744    7.14574398149321
C        18.58872987060478    3.05909187277998    8.18803494277992
N        15.85002011738790    2.90430626665053    4.63865701013430
C        14.82784029469497    2.99881015699399    3.67815284188688
C        13.78261018374024    2.18433217728582    3.71138598456730
C        16.42207913715770    4.14329350018128    5.12204768299363
C        15.53695826960548    4.80850729688662    6.17525769585875
H        17.02363839526272   -0.49309408547220    8.74848615381808
H        17.89932848846558    1.66989355198162    4.03492851980668
H        19.52485876704525    2.13191674924825    4.56584485355245
H        19.88644079410264   -0.17777877946379    5.44955334141004
H        19.43443291397129   -0.24013060983335    3.74184716107963
H        18.23845406483205   -0.61390082409478    4.99007590937832
H        20.00198379704926    2.49580049214359    6.67057803351555
H        19.39309615748225    1.14122599694973    7.64153961436741
H        18.34129457951121    4.01410243502376    7.72988507893692
H        17.70101502815887    2.66670762706607    8.67443860969355
H        19.35056931174049    3.22296630416853    8.94562991471522
H        14.97661353124792    3.72300358502590    2.89586630808513
H        13.00866675834817    2.12901999158234    2.96516144646448
H        17.40521194573744    3.92701030259896    5.53992292217241
H        16.54411188753003    4.80290476244606    4.25843902989001
H        15.99168318477135    5.73270758370354    6.52193351573608
H        15.40765748556348    4.14069599075960    7.02460676473364
H        14.55635675657865    5.03546680459633    5.76076403803189
N        12.73513255316837   -0.29301117629551    7.37442376392476
N        14.68833305271026   -1.59346739197507    8.41339576663854
O        11.71344942640129    0.28993050086211    6.62060367152588
C        12.39401565002488   -1.33542022316546    8.09991968663712
C        13.49184439456564   -1.94256790557305    8.81941222031102
O        15.80548244264557   -1.94367873255976    9.20895025659483
H        12.17246719714062    0.85959635826005    5.97792851140612
N        11.10943082311806   -1.87899501067236    8.23756567839918
N        13.24022204815562   -2.80799530011971    9.90713371782573
C        10.41717968942113   -1.50090916324557    9.45696844488883
C        10.28524546974470   -2.03711089275716    7.04972087720307
C        14.33455965138566   -2.91081661615339   10.79096004083044
C        12.56912671751108   -4.06924908718857    9.61826402814813
C         9.91558166470596   -0.05562348150925    9.46430979529203
H        11.11209617959167   -1.64572176007778   10.28821477466756
H         9.57392868713535   -2.18695049317761    9.58798353214517
C        11.04814177992959   -2.80224239845088    5.97490723555470
H         9.41155383432764   -2.61971475640541    7.36219413309480
H         9.93251626075150   -1.08403311775175    6.63827497911955
C        15.53578124682187   -2.46677409060432   10.45561745897900
H        14.11859922426237   -3.33313305364438   11.75872124668772
C        13.44407578538097   -5.02714369698386    8.81071732021032
H        11.65820769925324   -3.84257004604422    9.06645221048472
H        12.30544134728888   -4.51697407520205   10.58060435090600
H         9.18614114015260    0.10372771102162    8.67439470621878
H         9.45014348254672    0.17071891730466   10.42039413971507
H        10.74600489761006    0.62880199294377    9.30908387844850
H        11.39723564966428   -3.75654904156840    6.36332791888463
H        11.90910252924751   -2.23273806030038    5.63448496745028
H        10.39901506028330   -2.98602069944490    5.12265546124858
H        16.40114535211529   -2.43778774538905   11.09498547795087
H        12.90381001420500   -5.94841885619193    8.60905098688472
H        13.72066895141282   -4.56956332507736    7.86246502689070
H        14.35502323067003   -5.26926536696475    9.35600472568462

