89
CSD_code = BOKWIK | q = 0 | S = 0 | Stoichiometry = C44H33F4IrN6O | MND = 6
Ir        6.16941220245071    8.15490854518132   10.92852041631567
F         2.02466933712707    4.63336613967989   10.67545076023612
F         2.74651066799527    6.86935121008634   14.70955887251394
F         3.00895469243020   12.26038231400741    9.26434634663214
F         4.00819579277653    8.91341108331137    6.16358552336897
N         5.75921071187859    9.13904352133977   12.67322242715388
N         6.41998087983750    7.12417459464329    9.23279818664949
N         7.37351833289361    7.02465402332160   12.21966596902411
N         8.46572463218266    7.64003137409846   12.55512117602703
N         8.07312600240531    9.10006860447857   10.80716526287285
N         8.36647185046882   10.19751261002788   10.21861191909590
O        13.69737725071125   10.92886779662785   13.61806406527984
C         8.85196592493387    8.68505331191559   11.84469535095550
C         6.42411013187714   10.19622878005699   13.13488336815461
H         7.08596650968507   10.70096726928142   12.44445431763957
C         6.29721223707130   10.66280725085263   14.42870701380888
H         6.86862139976459   11.51756271175886   14.75166338484473
C         5.43335887841322    9.99841376443900   15.28607470032193
H         5.32318467069060   10.31298859066863   16.31255960166112
C         4.70154603979954    8.93201133141194   14.80138308959222
H         4.01440831887462    8.42011168935091   15.45078564700389
C         4.86353006685387    8.51821748386640   13.47852807881785
C         4.46118937089520    7.20177680081079   11.47791918281960
C         3.72877951955057    6.25721999442504   10.76776621330980
H         3.93694243536952    6.05143092692406    9.72819310580634
C         2.71314969294275    5.55287524817852   11.38291037156131
C         2.38548679663866    5.74502792179128   12.71255321987098
H         1.60408064993842    5.17678480640808   13.18867729916611
C         3.09231171621111    6.70034506167788   13.41205400398241
C         4.11333930750627    7.45049597963748   12.82802505373340
C         7.21698520312108    6.05973394315236    9.12427153799868
H         7.78675955688657    5.79169132779676   10.00386040332009
C         7.33772940658003    5.32012173688954    7.96551237388556
H         8.00017980495898    4.47037017158727    7.93343743504641
C         6.58733858647786    5.69563293787099    6.85924836401342
H         6.64522994803149    5.13760203423172    5.93759689169162
C         5.76774148224701    6.80239765054434    6.95588736563117
H         5.18470040337839    7.11000580051551    6.10604364921136
C         5.69763828888338    7.52033568664603    8.15073299250747
C         5.04898887307053    9.28425107797278    9.66911223501971
C         4.38231823566274   10.47277735152676    9.94871307293541
H         4.44615222672077   10.93106025155577   10.92402001437827
C         3.63200037036318   11.09880427442430    8.97506067474906
C         3.49479439564181   10.57893188053305    7.69987731763198
H         2.90605053614569   11.07883398700576    6.94922694547878
C         4.14814831346057    9.39861899714030    7.42025374956420
C         4.92343130296339    8.73296384026013    8.36941584853767
C         6.93759853357558    6.04859991782397   13.10297425379062
C         6.17443241575673    4.97805462128728   12.63223545068491
H         6.00018823262164    4.87677506127410   11.57217037346887
C         5.64468571981094    4.06103530463602   13.51420171563804
H         5.05107600247499    3.24234088504201   13.13315714498626
C         5.85661526800784    4.17441141826723   14.88400991587219
C         6.63982591181717    5.22710571469316   15.34645770867434
H         6.81872428706230    5.32873606113557   16.40763984050797
C         7.17879025117720    6.14929509084284   14.47611444116577
H         7.77141805695260    6.97592332546452   14.83967618522395
C         5.24015370627706    3.20611907722407   15.84558923321628
H         4.37776168278665    3.66317848917426   16.33249236598802
H         5.95064201605450    2.92599975065331   16.62120013499928
H         4.90501343743040    2.30820190926597   15.33252431128234
C        10.11909217950895    9.30522546211331   12.24014677671668
C        10.57214588097929    9.12068250212185   13.55084448709312
H         9.97354520707735    8.53399689523812   14.22969570582994
C        11.75866578899206    9.66936878191412   13.97407574190253
H        12.10880398698262    9.53155834354918   14.98503687547912
C        12.54281303720612   10.42417829663599   13.09831341005920
C        12.10605258303499   10.60524794793132   11.79173802783719
H        12.68865085903769   11.17473624484270   11.08451758678361
C        10.90877836186042   10.05235904515007   11.37247075978762
H        10.59496410397630   10.20570474694347   10.35228611151205
C        14.53164297786797   11.69306050348819   12.78297191088435
H        14.89433461596033   11.10745069302063   11.93169429986141
H        15.37751023201730   11.98879582572293   13.40176087763018
H        14.02161744930361   12.58975195270835   12.41571020558867
C         7.80600361537330   10.49611231055815    9.00432066490253
C         7.24666666816988   11.75512617877916    8.77940851969538
H         7.17468396124663   12.45155904193680    9.60070517208812
C         6.75106168928254   12.08029229566254    7.53502319017833
H         6.28992018934516   13.04619468157807    7.38546039597809
C         6.83145160599463   11.18900685732330    6.47073149107704
C         7.44176475640196    9.95809027865416    6.68467366281781
H         7.53728729572923    9.26247889696417    5.86228866851442
C         7.91485217267656    9.60530560741813    7.92964307432009
H         8.41132314812997    8.65656919078980    8.08213070821209
C         6.28229214438690   11.53354418695221    5.12077482255119
H         7.07839848727549   11.55216392458828    4.37696046960441
H         5.79851876136182   12.50661884609192    5.13438323653323
H         5.55480976424968   10.78592014476071    4.80777527137126

