51
CSD_code = BOKYAC | q = 0 | S = 0 | Stoichiometry = C20H14CdN6O10 | MND = 6
Cd        3.51989263802620    5.90667801260590   16.70202916332846
C         5.37918633329924    3.70946121359460   15.01418848435470
H         6.16643330886906    3.47160604999759   15.70395557153700
C         3.86463069522692    3.43831963262975   11.76022778879468
C         4.18380392618197    3.77255330923324   13.17844782977507
C         3.59046428646929    4.54296267557993   14.15938894345403
C         2.34165790761671    5.39147351916476   14.12860415407764
C         3.05840914659190    8.47625750969221   13.93759888860842
H         3.38930272617139    7.66204213605647   13.31144121571493
C         2.16227736833194    9.42348992063677   13.50404733450715
H         1.76263640657164    9.34706609406045   12.50617873586875
C         1.78819950747075   10.45533301679962   14.35311293678526
H         1.08604574666570   11.20889646389734   14.03710989053694
C         2.34066297588779   10.49082996060031   15.62122042307944
H         2.08419152434772   11.27281483320531   16.31908335024588
C         3.21954421392283    9.50147629739221   16.02684404236914
N         4.35695130432186    4.48403224211089   15.28604651184066
N         5.31222579403314    3.25419271518750   13.75345395220453
H         5.94650447071115    2.64470453071509   13.25527042721966
N         3.56683379699697    8.49696143036283   15.18355840953519
O         4.41641608714473    7.61469601551264   15.54825045793138
O         2.02411127946008    5.97322640670092   15.18996611747164
O         1.74163652476101    5.48221826410607   13.04345192082078
O         2.79900243543221    3.99157286158937   11.24793802352169
H         2.29749553015714    4.60434578375346   11.90758244574202
O         4.60250586020590    2.69019624513403   11.15940916676629
C         1.66059569960766    3.70938010209688   18.38984727211571
H         0.87327785676352    3.47161723056570   17.70013261257424
C         3.17474377217408    3.43880314908808   21.64403659447080
C         2.85595510172851    3.77247625924985   20.22560305859250
C         3.44944399010985    4.54269297835661   19.24458890820441
C         4.69797247382127    5.39144843586160   19.27548014430064
C         3.98137711864809    8.47625020837249   19.46643151225527
H         3.65053928532683    7.66199621412689   20.09256763791324
C         4.87744678180889    9.42353220036573   19.89999743514468
H         5.27706373814797    9.34716442549285   20.89788030713861
C         5.25152362762516   10.45537324933316   19.05092398452864
H         5.95365329029079   11.20895505336851   19.36693822440754
C         4.69909687021394   10.49083882169839   17.78280221025392
H         4.95557572318877   11.27281567202405   17.08493365998624
C         3.82022415714835    9.50147055598199   17.37718678994675
N         2.68290759117817    4.48382008653368   18.11794457603119
N         1.72758900601971    3.25406012598090   19.65057389525190
H         1.09312421065182    2.64484132794035   20.14885475747896
N         3.47296820389582    8.49694745510491   18.22046588625610
O         2.62340143035750    7.61465500300328   17.85576128698469
O         5.01578305430361    5.97306416458258   18.21408925374471
O         5.29832335447420    5.48198282439943   20.36050997629400
O         4.24087278862249    3.99139259693573   22.15606754396740
H         4.74200976136567    4.60469809242520   21.49673606030534
O         2.43760931771985    2.68971662690150   22.24454022584689

