62
CSD_code = BOKZAD | q = 1 | S = 0 | Stoichiometry = C25H29ClN3NiO3(1+) | MND = 6
Ni        2.20037302232586   12.31055480706922    5.32534807275372
Cl        0.22359941846255   12.13844425682192    4.91829337300953
N         3.97335565740971   12.31383845674744    5.70968080978726
O         4.71416941226613   11.64707573229123    2.29238951390742
C         1.23358749674525   11.79712355268222    1.54125413507110
H         0.33690991614863   11.96529554545844    2.11574700010855
C         0.92914528436775   15.31814964506320    4.45286509958955
H         1.04887407365760   16.40382046102726    4.48088098151522
H         0.24834243656595   15.00240416928289    5.23996375716550
H         0.51799269881807   15.01635895585614    3.48759317572139
O         2.40538148978590    9.84947105247171    5.51199561622522
N         2.85590801607716   12.01816379898881    3.46276827143216
C         1.22239717340971   11.54962700779228    0.18522700045320
H         0.28012244111352   11.52712182838271   -0.33913170369563
C         2.07946783761484    9.00874710388483    4.41276039438041
H         1.12731103220905    9.30169972347579    3.96303213176630
H         2.03150082110938    7.96518930709159    4.73145634644278
H         2.87299845082717    9.11220630884847    3.67480654786395
O         2.18002495450064   14.67840994046708    4.70135346580801
N         2.05388787954316   12.68649677507899    7.25855601767521
C         2.39973755045267   11.32416271233875   -0.53603996445047
H         2.33460022965384   11.13578544810836   -1.59600820391713
C         3.64424879499280   11.33255765795744    0.06606140892139
H         4.55241871888735   11.15684691262341   -0.48571653855965
C         3.66150616092108   11.57909600503038    1.42709168688557
C         4.16694637995583   11.90697607893031    3.48027873368362
C         4.85543004824531   12.05340999202576    4.74232639158453
C         6.21391466244808   11.93161177088241    5.01424027682872
H         6.91294378864484   11.72019659566996    4.22171731718902
C         6.62502846465519   12.08443368426806    6.33161124898555
H         7.67122663714469   11.99845194588243    6.58027660423870
C         5.69498522295581   12.33772185349935    7.33137160769249
H         6.00892469120150   12.44742480297238    8.35650841120829
C         4.34963741002819   12.44288686942992    6.98224040470817
C         3.20139749435176   12.70585025957907    7.85118360274332
C         3.40481356260578   12.95248751843600    9.30503182520225
H         2.45415358970997   13.05707594329957    9.82138631459602
H         3.99324586670193   13.85680852765347    9.45574961755300
H         3.95894660415897   12.12201169072593    9.74143534452151
C         0.87961766932150   13.06407281348978    7.94060689216874
C         0.65431617411953   14.41947083639542    8.22499564522665
C        -0.53531322553950   14.77958988159941    8.83818189162925
H        -0.71371627807249   15.82463783067317    9.04435769764173
C        -1.49273977502769   13.84161741152603    9.19460349826534
C        -1.23352418500322   12.50299299507476    8.92621363275931
H        -1.96006750218085   11.75681762095271    9.21057677130439
C        -0.06927573118914   12.09698217322195    8.30082648044353
C         2.47849409945054   11.81158404770059    2.16230347358915
C        -2.77725312722397   14.25140589758584    9.83780116517246
H        -3.04052318528004   13.56948229881565   10.64316202627806
H        -3.58179084221422   14.22223243870540    9.10317209212000
H        -2.71375841670243   15.26121268541275   10.23367417507851
C         1.65794034013716   15.47756075688416    7.87610902175584
H         1.15129744655284   16.42038160472443    7.68709183443401
H         2.23480614645760   15.20705242026928    6.99503424618686
H         2.34692198532068   15.63581700877459    8.70646254910740
C         0.17481978800766   10.64507133258646    8.02550520973542
H        -0.04343464665130   10.45195632898254    6.97431484015277
H        -0.48624536044509   10.02841866521444    8.62806763083903
H         1.20683696721961   10.37085445425488    8.24337900587843
H         2.78133823566380   14.93913788033467    3.99480530644653
H         1.75599803263499    9.66445591866627    6.20416881713427

