48
CSD_code = BOKZEH | q = 0 | S = 0 | Stoichiometry = C22H19Br2N3NiO | MND = 5
Br        1.34884403631069    5.39603719929719    8.14555488235191
Br        0.12460069607828    8.15005650437334    9.71270797219565
Ni        1.80811545995417    7.53718902607387    8.15165235319388
O         0.05429530472054    9.94071696506306    5.35348292062366
N         2.34281611382904    9.29632641881871    8.03590654986209
N         3.60291017261012    7.53898071410361    9.35206234282179
N         0.83059300504459    8.07640369805882    6.30970263034478
C         3.26386707009340    9.77994681947109    8.88421751222609
C         0.86675599296987    9.38558618161124    6.26696414809184
C         3.83621102786017    6.05339271677573   11.29154796896097
C        -0.57946440817994    8.88266124937922    4.77468041847486
C         4.11990457577429    6.39423856226766    9.96242469117415
C         1.97273646040490   11.47827010013644    7.14008325690152
H         1.45551575368230   12.10086174471353    6.42849971328786
C        -0.09824513739506    7.70109570967051    5.37606535514793
C         3.91470623979879    8.74378300887876    9.68261982370581
C        -0.57640709436619    6.45263316262988    4.99605769378375
H        -0.21803637372013    5.55776251918482    5.47871689595628
C         3.53429085009519   11.14564204233765    8.92874829270843
H         4.25061444051489   11.53415223260256    9.63400945333394
C        -1.53513102219966    8.85824543914995    3.77636541319471
H        -1.89956887682549    9.76588436129022    3.32401780496929
C         5.37104141264366    4.36561379829858    9.67296924216473
H         5.95011572879105    3.70469859127670    9.04563374979709
C         2.87017147194289   11.99822702873669    8.05993253807976
H         3.06028429345726   13.05974564096013    8.09138917411170
C         4.86275937476122    5.53406150641501    9.13630489303033
C         5.09801833651487    5.91096082334564    7.70739978140953
H         5.51144307888390    5.07391348370514    7.15205442992404
H         5.78433956431749    6.75644643231243    7.63239055037111
H         4.15247846069136    6.20745757553295    7.24172472630156
C         4.90444958341614    9.11367772907327   10.73760439069981
H         5.41335542268753    8.22610970919612   11.10608175521823
H         4.39885056248177    9.60407053383499   11.56893564932236
H         5.64284768313034    9.80378430891191   10.33193271997612
C         2.94710498799359    6.89222750926138   12.15750970024446
H         2.26947131164767    7.50361003582556   11.56730796929422
H         3.53432949429989    7.54808355516602   12.80160248119529
H         2.34655554606706    6.24977639082595   12.79653346336845
C        -1.53211761119525    6.43561019702150    4.00249960841779
H        -1.93762932144601    5.48985853965834    3.67806999466838
C         1.73922311076928   10.10880886469945    7.15705040629153
C         4.35724379336967    4.86497953188192   11.78501851091375
H         4.14019901820646    4.58899143184299   12.80633459447801
C        -1.99824796701253    7.60945176672996    3.40465554931123
H        -2.74873322825159    7.54055570083552    2.63213018397491
C         5.12781764361955    4.03398332321844   10.99487776968289
H         5.52210396113524    3.11532961564050   11.40196807448775

