54
CSD_code = BOLBOU | q = 0 | S = 0 | Stoichiometry = C19H27BrClCoN2OP2 | MND = 6
O         7.38116320033542    4.27414846016845    4.01426031772028
Cl        5.95810700192426    5.25345290790236    6.59606152083257
Co        7.77869939430538    5.64539362500087    5.41924195071108
Br        8.23261731074275    9.42504936027011    9.90006441992278
P         8.65374313537767    4.09636262738077    6.68595052977203
P         6.51698119467915    7.08967241324961    4.37430056814053
N         9.25569282182137    5.95542771864576    4.45342092940880
N        10.10568115952894    6.83290562610753    4.80340764556495
C         8.61265378659276    4.34579800906378    8.49249099521715
H         8.97929191571097    3.44863640619848    8.99035450080460
H         7.58500507903803    4.54310458913473    8.79191778289974
H         9.23447752951783    5.19759251072359    8.76135900308398
C        10.42172515381294    3.69260301919179    6.40367296825302
H        10.74095876690000    2.90873080638894    7.08966805997309
H        11.02830077079653    4.58332200556104    6.56392242989435
H        10.55992960116730    3.35470120429863    5.37699566798304
C         5.71348137253644    8.39479204306381    5.36346739290774
H         5.03568702625038    8.96461709248609    4.72859483670045
H         6.46856022060959    9.05591840933324    5.78447414098715
H         5.15760079282500    7.92411443333410    6.17224081690826
C         7.86122343231172    2.46520521933668    6.50900492719273
H         8.36335653646390    1.74092632576227    7.15069634076849
H         7.91481896776845    2.14835930485890    5.46923469032559
H         6.81465129943482    2.56035816758669    6.79293379966776
C         7.30431563580258    8.06628334394015    3.03457832445472
H         6.57765019320674    8.74540966948653    2.58996183213873
H         7.68795864773742    7.39311757866012    2.26842570814972
H         8.13459482598521    8.64119664067860    3.44334589834732
C         5.09899291746368    6.33872983663122    3.51091281634191
H         4.52813803476220    7.11340190166031    2.99861416787038
H         4.47635359380864    5.83562570814792    4.24859750774485
H         5.46011251959876    5.60186423801277    2.79605482370398
C         8.37992916851977    3.44711006380672    2.01392585145104
H         7.57669230073973    2.74470810418051    1.85054359284204
C         9.43675330551294    3.53703033379019    1.14661300319182
H         9.46457818281215    2.88967184203771    0.28092402304807
C        10.48316866222225    8.45458874663210    6.55808317534956
H        11.40994033781047    8.76191667472766    6.09914066823915
C        10.49722442815263    4.44358998152086    1.33480694952166
C        10.47512946546691    5.27236372754240    2.43134832196990
H        11.26315540974224    5.98545963519179    2.62283175427403
C        10.03784732419156    9.03699086554445    7.72603958134330
H        10.60961734730619    9.81545387758563    8.20721457855525
C         9.71942718774853    7.45077241949996    5.96274385868525
C         8.32809715038661    4.28615113308398    3.14986352402635
C         8.06675022399667    7.61256829047861    7.70190213847793
H         7.13980703021977    7.30867769481505    8.16517646369962
C         8.83932965444578    8.60859144263010    8.27929962681670
C         8.49677497865883    7.01585166150656    6.53034533943296
C         9.40620798522716    5.19919153763051    3.33175068749822
C        11.61933441746338    4.48471548646274    0.34148934479486
H        12.35781899476049    5.23084755941164    0.62258824445129
H        11.24044050146595    4.72651037786098   -0.65117204523697
H        12.11055210434809    3.51391734179380    0.28131400317909

