73
CSD_code = BOLDIQ | q = 0 | S = 0 | Stoichiometry = C37H30ClNNiOP2 | MND = 4
Ni        6.94199214003009    1.94647543115445    5.75472660294323
Cl        6.86830357926446    0.01808869775934    6.49203354755906
N         6.94722580836334    3.56617935812096    4.74821967707198
O         6.68008661265145    2.88391888629103    7.53553788352170
P         7.39739783361871    0.99902601005537    3.95224798711683
P         7.48018806307162    4.06258779288731    7.12077743673064
C         7.41139155169879    2.37594645804273    2.77443600630093
C         7.14108087588736    3.60990879495826    3.41772196925917
C         7.09879934053194    4.75932093485067    2.60619501134289
H         6.87219521225168    5.72258030715340    3.03978115859860
C         7.31718017268439    4.65701398214375    1.25032149707836
H         7.27729584504095    5.55225920755699    0.64518331650311
C         7.57503594923355    3.43488199165227    0.63876044240416
H         7.73522413426609    3.38284662460204   -0.42704551826614
C         7.61160323488096    2.28630817591529    1.40935629976658
H         7.79868704319123    1.32163042479708    0.95761065998693
C         6.21237195617416   -0.19080600044036    3.27753517239746
C         4.89430888084589   -0.09981172869455    3.71168981883196
H         4.65179300985583    0.61400639703957    4.49308895821847
C         3.92809293239901   -0.92736831755665    3.17358519078291
H         2.90611859216907   -0.86247418878008    3.51614702415803
C         4.27594203683642   -1.84648951869456    2.19604556653099
H         3.52368725398386   -2.49809775462331    1.77657092137216
C         5.58752881546386   -1.93643708534455    1.75907364814958
H         5.85505963826527   -2.65631909905668    0.99929913700101
C         6.55910692192518   -1.10933151104835    2.29411716850700
H         7.58480913861997   -1.18284102525909    1.96065733405495
C         9.01263444867877    0.18953250288251    3.82902524304843
C         9.17635345670038   -1.09970062469248    4.33041006910310
H         8.33308144199810   -1.59958776298964    4.78489001291214
C        10.41371558108662   -1.71118608648250    4.25840345422835
H        10.54173117770905   -2.71136019504684    4.64525484251298
C        11.48966528956598   -1.04351296453555    3.69292916126054
H        12.45462695215702   -1.52591284152258    3.63553286567671
C        11.32977685536893    0.24297942141891    3.20503648484099
H        12.16848841742320    0.76395675524179    2.76633508379797
C        10.09602934263424    0.86460689521301    3.27754699995307
H         9.96464894842295    1.87084140067458    2.90454031215292
C         6.72028803834555    4.72495380136301    5.55629184089525
H         7.21815374603138    5.63272277761436    5.19139491679052
C         5.28667480350034    4.98688262312579    5.91612931070027
C         4.90128230227495    6.22503652368070    6.41540823107732
H         5.62560969411676    7.02735501416374    6.47524292174654
C         3.59946639405171    6.43139340865718    6.83387434910719
H         3.30715064582603    7.39720510815401    7.21967548390332
C         2.67594699475339    5.40116066713293    6.76556497399085
H         1.66130056111525    5.56291521585733    7.09835428731838
C         3.05596996570969    4.16342422713063    6.27381815050864
H         2.33980411317288    3.35650970979606    6.22515506048432
C         4.35620609875343    3.95699873608157    5.85260972565616
H         4.66190502946387    2.98120157089437    5.46851100719326
C         7.50498543994030    5.32115000816708    8.41869252498649
C         8.54327293432300    6.22797478660056    8.58090709203248
H         9.42565933643494    6.15594269188164    7.96113223144875
C         8.44683115772608    7.20845536736115    9.55173582946716
H         9.25496606521624    7.91235680516936    9.68770306674440
C         7.31565558737708    7.28959019042305   10.34888484865877
H         7.24452299126711    8.06001951551962   11.10243444068807
C         6.27974132667679    6.38339544283008   10.18594563321733
H         5.40124559593717    6.44599039002587   10.81079114124314
C         6.37288680654364    5.39821204414408    9.22089377606678
H         5.58387604630090    4.67293515969337    9.08230493716121
C         9.16170677707045    3.58764418720121    6.60975778124610
C         9.55534107368250    2.28078339406757    6.88978662168300
H         8.92215464870223    1.64483198561796    7.50100342156741
C        10.77280106414258    1.81315108432906    6.42469357002611
H        11.07375877889692    0.79760977841620    6.63384366841598
C        11.59446177428331    2.64619272967511    5.68338285885854
H        12.54162761238743    2.27986622772305    5.31646201636027
C        11.20418193545587    3.94688279727037    5.40724891894762
H        11.84563549632088    4.59251118866364    4.82505751555381
C         9.98677531380085    4.41953385699536    5.86342868620865
H         9.67249536539636    5.42685123896264    5.62720071266180

