61
CSD_code = BOLGEQ | q = 0 | S = 0 | Stoichiometry = C25H29Cl2N2O2V | MND = 6
C         3.66547582910283    7.07311151545748    0.45992705859652
C         2.71029531029365    7.69130399235749   -0.38071210649206
H         2.82589336737174    7.60259000180540   -1.44984120158015
C         1.67669058682382    8.40038291156027    0.15355532289742
H         0.95247593771938    8.90240192339463   -0.47121639708839
C         1.54905702526349    8.46760428464303    1.55610967179649
C         0.51314270506115    9.17696884339161    2.19387760553060
H        -0.21512509959848    9.69090953132925    1.58483091404390
C         0.45007181276738    9.22547327227379    3.55995925304137
H        -0.32621931558311    9.79253160627267    4.05113896833687
C         1.38271015182572    8.53573302364433    4.33723330885878
H         1.31835120390652    8.60713002724850    5.41276774881198
C         2.39620271657188    7.79825094368741    3.75029416877394
C         2.52816720982296    7.79680396226825    2.33185999817152
C         3.17907450902659    6.68223221332983    5.64720395603998
H         2.21501352664681    6.81341380241626    6.15238407417031
C         4.19605066053624    6.02648808897518    6.41669496391223
C         5.46806657247900    5.76335067009445    5.83632874119674
C         6.47468075437849    5.13916648631051    6.61495290556955
C         6.16985604781989    4.80228421837171    7.92201063162336
H         6.92938886474157    4.32544447335460    8.51429190203739
C         4.92363981689412    5.04292122037393    8.50859515293876
C         3.94945688311770    5.65313398101042    7.73794301151045
H         2.97166479807919    5.85864513760800    8.14831008663689
C         4.78057881707275    6.31198395568821   -0.16270927025196
H         5.72893903427219    6.81318532414151    0.04780712112672
H         4.64424249600119    6.22492637287397   -1.23767542257350
H         4.84156015170209    5.31872177113601    0.28910371377366
C         7.82606112642553    4.86030135389837    5.97370154270233
C         7.62967553894883    3.91973489912286    4.77279064867290
H         8.59931092500865    3.64207614434901    4.36539097151451
H         7.05507699095588    4.39896530898764    3.97726310009607
H         7.11087853249624    3.01327808867721    5.08097991362841
C         8.44501051606730    6.18504221920236    5.49897184999301
H         8.52149377904516    6.88828808755972    6.32705241683168
H         7.85078133777965    6.63877532233098    4.70446438535098
H         9.44311924943426    6.00228039942946    5.10739714119844
C         8.80401976462558    4.19595126266449    6.94876601828986
H         9.75217460923948    4.02838635651434    6.44324064167751
H         8.43112321920063    3.23114745363686    7.28517788495408
H         8.99390868017324    4.83080256212173    7.81149662719687
C         4.60977641356948    4.66150729121125    9.94744889597322
C         3.42935622204188    3.67970698571284    9.95601479931282
H         3.67672116197430    2.79005277362340    9.38079764053763
H         2.53611906767723    4.12479655336681    9.52654738780823
H         3.20208073989531    3.37919598601234   10.97644990195091
C         5.79027128422964    3.99406655155553   10.65791693739972
H         6.07893461336923    3.07189776051609   10.15921715868799
H         5.50181996763240    3.74556214613107   11.67707744941411
H         6.64780831026766    4.66094837758512   10.70757574616575
C         4.23786237962355    5.93112830518671   10.72721681251622
H         4.03375097399192    5.68381846673844   11.76657649778080
H         3.35468368391951    6.40908174444008   10.31283967902187
H         5.05825355876225    6.64495772797504   10.69717003301900
Cl        5.38615642611535    8.70396041141460    3.24670457124905
Cl        3.73243377930245    4.68098227393898    2.97819810495980
N         3.58032524159901    7.15636459147043    1.77280902585318
N         3.35338484169040    7.08933567871478    4.44348226143591
O         5.66402342412519    6.06830613851153    4.60252009852352
O         6.11440720519841    6.16550619233696    2.18182641570762
V         5.00529406149664    6.52040103004185    3.16079155917275

