65
CSD_code = BOLMIB | q = 0 | S = 0 | Stoichiometry = C23H35ClN2O2PRh | MND = 6
Rh        4.03000519726759    3.15604586439430    5.73882475293740
Cl        4.19751423011893    3.81968216528027    8.04601459102182
P         6.26684095539574    3.05727652355039    5.47913303221808
O         3.67979231093939    1.29151357507260    5.36439545728249
O         3.71577995136951    2.02428372565060    4.21101450268997
N         4.34011164446976    5.08954717288746    5.54922779353583
N         1.93565790306181    3.86195410002687    5.57932367346429
C         6.64171191608873    4.74729601421383    6.16412074255713
H         6.56932149711664    4.62694242235583    7.25021780168898
H         7.62494752519847    5.14123358390076    5.90582816591916
C         5.53243647608921    5.66243951083293    5.76087928553594
C         5.68909216026684    7.03447348573721    5.64443933486902
H         6.65569539473698    7.48200142687446    5.81641797980085
C         4.59035459602230    7.81993447696558    5.32497699454846
H         4.68878305729843    8.89188566661529    5.25099917814832
C         3.36706600392477    7.21215142853147    5.10732982063148
H         2.49670894873900    7.80466704734877    4.87811895356404
C         3.27385062641711    5.82697724789399    5.21112871298879
C         2.03123250793812    5.07355124157406    4.98821369765768
C         1.01509507931531    5.59820584348918    4.19936793999878
H         1.13410043859274    6.55524328187341    3.71869629508346
C        -0.12238660753816    4.83774849717045    3.99702481819834
H        -0.90341602348364    5.17839960148930    3.33383520437714
C        -0.24827560753348    3.65166225272119    4.68774797399380
H        -1.14295189316371    3.06387057092455    4.57391175948350
C         0.77671842218257    3.20046598781753    5.52796875406018
C         0.50051051925568    1.98529195636502    6.39852142963185
C         1.47047202686196    1.88527507075157    7.57441726579509
H         1.18463397589760    1.05462537376710    8.21574822167593
H         1.46091612679520    2.79841669077013    8.16609446924978
H         2.48554828188099    1.69459116567638    7.22792591616402
C         0.60490041549205    0.72349998931553    5.53212736263805
H         1.62585687890961    0.61135942035579    5.17596660692685
H        -0.06585398556867    0.77614016472584    4.67676330165089
H         0.34811098011291   -0.15044600994395    6.12558994383184
C        -0.92154284410023    2.09651859048806    6.97968296591547
H        -1.04542716717246    1.34407798004564    7.75457237096730
H        -1.69179670314349    1.92313808571667    6.23278126004615
H        -1.08186032379656    3.07510571132836    7.42843807657725
C         6.83350226169850    3.17807489386010    3.67180945627300
C         8.21641440822853    3.80413157143129    3.48640146295692
H         8.99443654364769    3.27581814141449    4.02454950572360
H         8.22290996311898    4.84770365902361    3.79411087992342
H         8.46786627609973    3.77482289111350    2.42643997825959
C         5.82031966877154    4.05618415090237    2.93007830858578
H         5.83120122558720    5.08190834953965    3.29715780409948
H         4.81715038560380    3.64305532625391    3.02697843321930
H         6.07230475857548    4.07999707961471    1.87037091335665
C         6.77772366467075    1.77645409755729    3.06636230728240
H         6.86358613025218    1.83516158528120    1.98202603925343
H         5.81928368258199    1.31922636020700    3.30820563922482
H         7.58481773473167    1.14679406230343    3.43131867189153
C         7.30817597170138    1.82934651017710    6.47543889968965
C         6.69201353347574    0.44931214229262    6.23361090289475
H         6.89498348566027    0.08503478808669    5.23064630172536
H         5.61000496681032    0.49406981017384    6.36356543735354
H         7.09793853777077   -0.26932983983568    6.94374421681476
C         8.79737029353593    1.82318020792063    6.13802091067074
H         9.22964562329989    2.81745708573716    6.23547973118933
H         8.98935165492701    1.43863767301597    5.14000590637919
H         9.30836308007365    1.16894180064974    6.84407735842181
C         7.14822503403167    2.18189835162160    7.95551206425157
H         7.49501072645648    1.34818514033710    8.56365255843849
H         6.10525157034870    2.36766729214340    8.20498852431229
H         7.73859392607751    3.05571996461683    8.22516138047568

