61
CSD_code = BOLMEW | q = 0 | S = 0 | Stoichiometry = C20H31ClCoN5O3 | MND = 6
C        -0.91285344281522   -2.60323788210616   -7.05033839116073
C        -0.95142828843350   -1.22597706617886   -7.19908826267219
H        -0.57819884269821   -0.60469668667939   -6.40042640490132
C        -1.46603574817970   -0.65957279247956   -8.35913543811927
C        -1.95585912014843   -1.47995493917018   -9.37970635079960
C        -1.92963201094064   -2.86167585239736   -9.23280364532960
H        -2.31253778226111   -3.50657408654697  -10.00797443380966
C        -1.40984841455034   -3.43287924460633   -8.08180989449819
C        -1.76019543294038   -5.82758491195592   -8.51097451198161
C        -1.75930985271698   -7.10242983232424   -7.63592042754237
H        -2.70323296765632   -7.08497400551364   -7.08612401065907
H        -1.73856245219080   -7.99760420800688   -8.26704317974135
C         0.53596041844667   -7.60752929721176   -7.39454499224375
H         1.44234768012508   -7.49001980561826   -6.80648041705437
H         0.66257375759388   -7.06832013145077   -8.33074889970980
H         0.39588426574088   -8.67168026259684   -7.62084188362419
C        -0.91328797550330   -7.92505531134360   -5.50737864252720
H        -0.92308841288604   -8.98118201975715   -5.81330889624458
H        -1.90529812108521   -7.66073913703508   -5.13697589953457
C         0.08244166700843   -7.75510205106422   -4.35427829650785
H         1.10232940373196   -7.93442586443289   -4.69540681193241
H        -0.14916543199828   -8.53135987927799   -3.62143004260219
C        -0.01791572670153   -6.41204013097035   -3.62198763971811
H        -1.06665173804133   -6.24296344767915   -3.37156751950218
H         0.55979128945353   -6.47405782077963   -2.68845445644784
C         1.91243262700829   -5.28416557962297   -4.49331526243970
H         2.25528717950489   -6.13384402017405   -5.07790588986039
H         2.35123390766785   -5.34564831773575   -3.48979729094061
H         2.26353436296650   -4.37209554682480   -4.97066654714468
C         0.08627794316111   -3.98333748487169   -3.75255345664017
H         0.78564275875572   -3.72752722101668   -2.94905493169890
H        -0.91732152830021   -4.06396084084622   -3.32843352616609
C         0.01344132405556   -2.83606562591768   -4.78665468408318
C        -1.49523804863905    0.83348000303973   -8.50038488647682
H        -2.51959917698407    1.18665943915175   -8.61684209691292
H        -0.93417681375786    1.15307253796554   -9.37903794073907
H        -1.06479722589315    1.30693614134216   -7.62201627876777
C        -2.51597828763987   -0.88295948254313  -10.63664750070522
H        -1.77164254997801   -0.26456847883202  -11.13921396302313
H        -3.37296667829707   -0.24899646079184  -10.41070822729925
H        -2.83602893271659   -1.66541558186879  -11.31961622318757
C         1.65361139893978   -4.13168974079539   -8.10391721323199
H         0.94260694963304   -3.44187741690709   -8.57105546538266
C         3.95583928949762   -4.87364818103896   -8.09504010354318
H         4.74767311860658   -4.25594176360527   -7.66745969280973
H         4.37400765017969   -5.47330408980303   -8.90567571285236
H         3.55523113199267   -5.53059903904454   -7.32681983815655
C         3.23260904121274   -3.10394911497642   -9.62823038534393
H         4.00598826194139   -2.42037962055100   -9.27123641213848
H         2.35732770441571   -2.52677238157854   -9.91710874608347
H         3.61420260214988   -3.63486538707140  -10.50324935343713
Cl       -2.44206808166193   -5.15600940682102   -5.23766434947649
Co       -0.51888696041332   -5.11403782841843   -6.18996571846383
N        -0.44941700884983   -3.30642089239692   -5.94471190614479
N        -1.33375605647248   -4.79056306510799   -7.79036184305381
N        -0.63040133065803   -7.08114746291672   -6.68113187457599
N         0.45041377757757   -5.25770379692992   -4.40838135435887
N         2.88493439516540   -4.04157358273361   -8.59172598553901
O         0.33756602325647   -1.69160868819459   -4.50779149906579
O        -2.12031691477536   -5.84299660362656   -9.67834645762513
O         1.32780742699512   -4.91493875075770   -7.21312803376846

