55
CSD_code = BOLMAS | q = 0 | S = 0 | Stoichiometry = C18H25Cl3CoN5O3 | MND = 6
Co        4.50777452772966   -5.07257858800245   -3.86940568813143
Cl        6.44881991306561   -0.71016441612408    0.76735782715226
Cl        5.41053273973904    1.10405342554819   -1.56167719460389
Cl        6.45047980247404   -5.13415360477154   -4.77591666432718
O         6.06772568525467   -5.75435468318454   -0.34978434817678
O         3.75836992760232   -1.65628651843733   -5.61947730353146
O         2.64961979588590   -4.85571074985466   -2.88236209728638
N         5.29496305762227   -4.73079627616489   -2.25785341347847
N         4.46138759439444   -3.26709419976460   -4.13704625182857
N         3.58729993057945   -5.22531660307240   -5.66592590509125
N         4.60663519156431   -7.02712446328334   -3.35048177608257
N         1.07891743405241   -4.03898188973077   -1.48370776445010
C         5.37272684422133   -3.37723535446407   -1.97965607089063
C         5.86236240577337   -2.80323694407640   -0.81613877837705
H         6.22853672355299   -3.42987511877763   -0.01958868814402
C         5.86916471337750   -1.41994360660893   -0.69614808700482
C         5.40712320100517   -0.61423338827422   -1.73021660376247
C         4.92757658592886   -1.17384347437072   -2.90691181793898
H         4.57803112319251   -0.55105390333776   -3.71381879718457
C         4.90048544063761   -2.55401696200684   -3.03620732480650
C         4.04324107782347   -2.80233504035733   -5.31999128582295
C         3.97726693777553   -3.96442778383956   -6.33420592815594
H         3.29670219689368   -3.71487497273351   -7.15517985022651
H         4.98809329683373   -4.06116327678349   -6.73740325836396
C         2.12265740053239   -5.23636818184852   -5.61119828632898
H         1.76002009392198   -6.07570131074891   -5.02405458297099
H         1.70512958110320   -5.30563340217107   -6.62250044508561
H         1.77018005309858   -4.31578690542608   -5.15166349272715
C         4.05969914749119   -6.39475142105894   -6.42918752836998
H         5.11418201114990   -6.23862634231448   -6.66260501026554
H         3.49833658715814   -6.46271358947993   -7.37150961811302
C         3.93369580535813   -7.72662587615916   -5.68140621857492
H         2.90639358474954   -7.89294395584908   -5.35704556839303
H         4.17221848955052   -8.51440951382352   -6.39932085318236
C         4.90709968939374   -7.88813512084678   -4.50871525925781
H         4.90509821168366   -8.93941542916763   -4.18847742865284
H         5.90713787850425   -7.63421830859610   -4.86405138955151
C         3.42518100284278   -7.54220368714565   -2.65178031789800
H         2.53046241459817   -7.42843031161052   -3.25781082155879
H         3.28339231639434   -6.99286994194193   -1.72379484576615
H         3.55809046943126   -8.60370733910632   -2.41216410127414
C         5.71887718711415   -7.04468841031770   -2.37520754478566
H         6.67277121786683   -7.04048088790680   -2.90795170772178
H         5.68057586595014   -7.93193465988619   -1.73440514401812
C         5.71548070918270   -5.76173131229776   -1.51627451446742
C         2.30124194066361   -4.07595769086782   -1.99480501647219
H         2.98592626698087   -3.34364254461860   -1.55329251758348
C         0.71008672658304   -3.11412084100160   -0.44189958031066
H        -0.10100987172935   -2.46790691603530   -0.78353674512762
H         1.56307544832590   -2.49624518690540   -0.17074016171814
H         0.37190527681793   -3.65994723793108    0.44118541665828
C         0.03916091004335   -4.92922529766886   -1.94498852315187
H        -0.80299431209778   -4.35472779950428   -2.33406715359542
H        -0.31119638534137   -5.55723847105909   -1.12391659095921
H         0.44418813569950   -5.55726371423137   -2.73466737826155

