25
CSD_code = BOLMOE | q = 0 | S = 0 | Stoichiometry = C11H8CrO3S2 | MND = 9
Cr        7.15557181496229    6.91030710079848    0.88529126806655
S         3.42615522348215    6.89389458634533   -0.54653116992777
S         5.18118310713080    8.74188471778312   -2.03812505044038
O         8.85523946266832    6.63303819201166   -1.54903138780770
O         6.40236794074711    4.04584755348233    0.53263795602192
O         9.57067171568455    5.47808974503689    1.87662965771217
C         6.68817938242869    9.06749952104058    0.74909610049381
C         7.22761320781222    8.88257858905556    2.01584480354281
C         6.39385369869229    7.98079554866595    2.74026319129297
C         5.33576874867424    7.59975829057681    1.92478330574241
C         5.47532515981881    8.29002978809012    0.66429479356916
C         4.80629272124630    7.97301717922811   -0.50391393282748
C         3.61395788617643    6.55703628304575   -2.32745204351367
C         3.88725267243126    7.88134574136016   -3.00019358760461
C         8.17104257609095    6.78046190253586   -0.63191740377169
C         6.64937319651047    5.16506233119037    0.66798705975983
C         8.63560060539765    6.06679874005879    1.53807689512736
H         7.00425697876882    9.78729574330916    0.00733884521635
H         8.07176105858825    9.41423405419232    2.42937440257361
H         6.51228695404272    7.73093088508524    3.78411662484662
H         4.46214121859288    7.03481367162794    2.21763006690076
H         2.69283890626742    6.09917204272317   -2.68369143525566
H         4.44722997645651    5.86182594842437   -2.44481901811413
H         4.26412108955972    7.75726724162192   -4.01383474825226
H         2.99971469776907    8.51661460271013   -3.01055519335086

