23
CSD_code = BOLMUK | q = 0 | S = 0 | Stoichiometry = C11H6CrO3S2 | MND = 8
Cr        5.85395341634146    1.55215237391422   14.10631605237771
S         6.60651084633057    5.67714405429280   14.38257764655475
S         5.95862382326840    4.92913717275400   11.60731438152910
O         8.36928636422873    1.57915551130933   15.70849561261076
O         6.25127946005669   -1.32073851121404   14.77600965102121
O         7.48674402505641    0.56112111027738   11.81543629729141
C         4.76003437799344    3.16343583782300   15.15294439029268
C         3.93201054386747    2.04473840356908   15.17466426912907
C         3.62090543967320    1.68363558394008   13.83262577935374
C         4.25420407954430    2.57744445459970   12.97387777017418
C         4.93993199115480    3.55967274299782   13.77754627706235
C         5.75220814514174    4.58126749136559   13.31336036122907
C         7.32795495432699    6.60771563116577   13.10668423151009
C         7.03482602902526    6.26936429653159   11.85137264896208
C         7.39337182758856    1.62088270712714   15.09411705580742
C         6.04228695665287   -0.21084890523649   14.53085609661202
C         6.84231008255126    0.98559177298286   12.67338154114501
H         5.05412734664337    3.76380654832255   16.00270992650955
H         3.50041117838151    1.59331676362691   16.05567244394915
H         2.91783888268799    0.91695251041172   13.54258749424094
H         4.10322003942221    2.66212194310724   11.90666481387351
H         7.97719760765484    7.41169332543230   13.39947473229645
H         7.40996258240805    6.75713718089934   10.97111052646838

