82
CSD_code = BOLNIC | q = 0 | S = 0 | Stoichiometry = C30H45N6Y | MND = 6
C         6.18261536053367    3.81758754609508   18.59173627968679
C         4.83712266820770    3.88739779991558   18.90489490321795
H         4.43805555621411    3.35093085469331   19.75043030481017
C         4.01734373416807    4.67885207358282   18.10035480226510
H         2.96367259262686    4.76405920406446   18.32815763770867
C         4.53603790974339    5.34934170697689   17.02459938363227
H         3.88722304063437    5.95758760576097   16.41844967104436
C         5.91970600583615    5.23443189284821   16.72144921426993
C         7.12959303287570    2.99052054321123   19.41379660919321
H         7.06447690917153    1.94486652414001   19.11023417849917
H         6.87735940259744    3.05269685484084   20.47078814328648
H         8.15587276951000    3.32641757959965   19.25914185095134
C         6.12429338898017    6.70927439936636   14.74695921459147
C         5.01653404209126    6.12268083007350   13.85395437800577
H         5.36425361900729    5.19660808966425   13.40088485505876
H         4.77018621128488    6.82693418028503   13.06226726689625
H         4.11105661159573    5.90664139773270   14.41040687441821
C         7.31563985711550    7.05570463884968   13.83664031191304
H         8.13270509008015    7.46001790209518   14.43629739562508
H         7.02518987413947    7.79500826409007   13.09220197625611
H         7.66061617259053    6.15829541386054   13.32169600845729
C         5.66237316325157    8.00824583842985   15.42881447575800
H         4.79877433266620    7.84405691405609   16.06550466329387
H         5.40313527706994    8.75468011724703   14.68116881357645
H         6.47210182612347    8.39433878930333   16.04643738393546
N         6.70673206699570    4.46780362324761   17.55355696990190
N         6.63336368324517    5.75106565077384   15.72276077921224
Y         8.69803447097584    5.02192673349193   16.39695303512978
C        10.99857899890436    3.44561387793888   18.59188418352925
C        11.61111709190971    2.24555702075513   18.90483331825546
H        12.27509403366515    2.16809448775257   19.75048156329497
C        11.33591960412203    1.13999631392147   18.10001787994198
H        11.78941868376144    0.18501802299119   18.32746206295484
C        10.49610290295827    1.25401967043897   17.02412094612837
H        10.29417001813451    0.38812559750798   16.41765265229625
C         9.90347863627386    2.50968825431622   16.72122105955256
C        11.24029701795903    4.67897684281653   19.41460568382046
H        12.17678643638036    5.14774825832123   19.10960329499327
H        11.31514217194460    4.42878897215797   20.47127376797748
H        10.43448783210259    5.39827999394809   19.26214416072859
C         8.52449731074408    1.94971353163411   14.74625471896104
C         9.58656535650866    1.28400465608980   13.85321783320851
H        10.21446400346391    2.04841220112901   13.40023142815368
H         9.10007265653226    0.71841075111362   13.06146704033735
H        10.22661045657894    0.60806090355094   14.40966431548255
C         7.62872970888647    2.80828464246441   13.83605973891426
H         6.86982361104250    3.31337654800022   14.43573543293584
H         7.13398426978604    2.18724265782600   13.09130436218871
H         8.23336976245889    3.55604345702487   13.32148961791528
C         7.63055739672322    0.89988087679073   15.42767549912204
H         8.20460494999177    0.23396977440688   16.06419290298202
H         7.11383602778252    0.30230702722702   14.67984392047529
H         6.89125749270475    1.40779425117482   16.04544836681018
N        10.17355780821690    3.57445627775881   17.55358470414230
N         9.09938971530911    2.86952616495445   15.72245541068104
C         8.91309661972256    7.80260891918567   18.59116904217997
C         9.64626336375864    8.93301805514304   18.90408840222013
H         9.38124265269976    9.54702911853829   19.74951326895145
C        10.74157796797031    9.24707733331656   18.09947239037150
H        11.34228227528045   10.11694695739988   18.32719100207461
C        11.06288820147684    8.46244676105556   17.02385611024320
H        11.91413940519786    8.72002724441974   16.41775041499227
C        10.27146586824766    7.32161335088687   16.72084925243177
C         7.72335304277798    7.39597924614943   19.41319135179021
H         6.84914662326988    7.97152191823149   19.10612397988061
H         7.90129925702129    7.58788077054283   20.46967302841237
H         7.50412619014288    6.33808436320758   19.26228343521885
C        11.44613665122447    6.40681273253477   14.74629745233814
C        11.49233559402166    7.65942397567638   13.85326819466828
H        10.51649545460843    7.82155169544055   13.40025025580679
H        12.22535921925959    7.52052742259869   13.06154109307969
H        11.75817075754320    8.55153095587945   14.40973802462590
C        11.15015007275994    5.20195774056855   13.83596611948921
H        11.09147148054523    4.29221186955341   14.43561663218388
H        11.93561858919823    5.08361566956551   13.09154960556964
H        10.20055241516283    5.35220808719255   13.32097956689003
C        12.80199341449119    6.15699443926095   15.42809796682091
H        13.09195164360677    6.98704484406559   16.06455091798704
H        13.57795002135428    6.00777531209637   14.68045644692454
H        12.73117427663111    5.26290059845180   16.04597386939674
N         9.21411536265352    7.02345491168343   17.55308280238978
N        10.36186095519428    6.44519170504876   15.72220612668778

