45
CSD_code = BOLQEZ | q = 1 | S = 0 | Stoichiometry = C15H26N3Pt(1+) | MND = 4
Pt        7.42790687467113    2.40654082920382    3.93404039151837
N         5.84893112750530    2.85990683241914    5.19892180928141
N         9.01990643996429    1.94620097572397    2.83090322654158
H         9.13517379409180    0.96771293953982    2.55205120555332
N         6.34575351199664    2.91167747563089    2.07121741423064
H         6.30675826803849    3.86397467401831    1.70905318622838
C         8.34312972229680    1.96973756147150    5.67207748276476
C         7.44570174040381    1.86520625564186    6.74177075238577
C         7.88977309991518    1.63015122101687    8.03250016153696
H         7.17912460968858    1.55308993690824    8.84233096427720
C         9.24533558725909    1.49237833594975    8.27734117447981
H         9.59626688839932    1.30749887737638    9.28050700293630
C        10.14546042402737    1.59720938559763    7.23307314754516
H        11.20340781902615    1.49277825950146    7.42089679802857
C         9.69914165773015    1.83837872249783    5.94117769346045
H        10.43196289339379    1.91701639906621    5.14941007721322
C         5.98559645533480    2.00457082271860    6.40103382450776
H         5.40762499336840    2.42331923406030    7.23408149055002
H         5.57646690381397    1.01496154814099    6.16862962655949
C         6.04362041949858    4.26481438300667    5.58724620207248
H         6.02604852661487    4.90422099900866    4.70239096926895
H         7.00252627285649    4.37817982601967    6.09481173668323
H         5.24879033247870    4.59119157679414    6.26653791929069
C         4.50020611491605    2.70371371922105    4.64951352696476
H         3.74649880568242    2.93717577470466    5.40900528386883
H         4.34751727549029    1.67767908755275    4.31550572948530
H         4.35430691135142    3.37740937227841    3.80554867403165
C         9.95232685444598    2.73773562755457    2.46947763471040
C        11.12971094150644    2.29525702086772    1.67288218721483
H        12.03406667733017    2.39926608184503    2.27175293707992
H        11.25541034758878    2.92764311070450    0.79605890832737
H        11.04128446635062    1.25839308502431    1.35670143270142
C         9.88419083441935    4.17181673150621    2.86435222746257
H         9.02375245449832    4.33484449472240    3.52291609561886
H         9.79779039237591    4.80393854809838    1.98207299113637
H        10.79465488619397    4.46272753567770    3.38447410522641
C         5.80740442294806    2.03121381925021    1.33112027036160
C         5.81989211399979    0.60942752441882    1.77774300986982
H         6.32732588773601   -0.01094198218206    1.04114624781624
H         4.80186342810231    0.23434522337600    1.86706963113679
H         6.32969407747131    0.52031370602029    2.74492751212031
C         5.14599471996094    2.32699379932627    0.02906462624747
H         5.18910472112719    3.38575911867617   -0.21818523631312
H         4.10314460585916    2.01495091324190    0.06291865220028
H         5.62265069842749    1.75902061703081   -0.76837070419121

