45
CSD_code = BOLQAV | q = 0 | S = 0 | Stoichiometry = C18H14F10N2Pt | MND = 4
Pt        4.55431608716707   12.48114150294370    9.45562542344696
N         5.96472541918817   11.56958295530038    8.25707082672494
H         5.60088529692898   10.88259086205628    7.59314204909191
N         5.11660033716611   11.35758402152099   11.08750979708124
H         4.86008570394925   10.37144150910683   11.01181582700098
C         7.19842805895616   11.84833661315025    8.13926188674408
C         7.81045347520086   12.85025547788636    9.05281981579374
H         7.03117806135607   13.31681036916972    9.65691556472539
H         8.31381260848057   13.62118085864576    8.47408087553684
H         8.54906465281193   12.37323311484501    9.69531187136913
C         8.08443920429564   11.22824057961412    7.11004586817656
H         7.60598610216841   10.38372672271267    6.61807720103474
H         9.02211540478454   10.90276197142091    7.55542558455724
H         8.32422241954629   11.97711799120243    6.35540232027375
C         5.50600756031343   11.73159260238610   12.23739590709636
C         5.87871940742748   13.15686541308556   12.46464448980341
H         5.58832928550982   13.76556586936823   11.60546757935894
H         6.95433950891781   13.24007389325276   12.61598252857964
H         5.38977108709577   13.53607730590393   13.35940352804958
C         5.61326234902513   10.80745883016750   13.40580470863900
H         5.54579559150401    9.76481501394048   13.10283661322413
H         4.79550181769649   11.01506727183220   14.09591110643539
H         6.54456673860436   10.97022058071198   13.94369827395677
C         3.90209562345112   13.54013449411352    7.86411565940185
C         4.67855121838727   14.49327152818543    7.21345227159438
C         4.23199850290297   15.23961155646779    6.13110302959517
C         2.94016675755645   15.04660000120247    5.65721911962718
C         2.12508011240169   14.10391960306032    6.27378675546790
C         2.61775664752317   13.37861810445629    7.35107138440236
C         3.04913131404795   13.29497343690180   10.52518048485623
C         2.80416169064692   14.65665713962358   10.67344485344475
C         1.70536514283972   15.16747495300669   11.35241133063230
C         0.78811790912514   14.29073620001291   11.92080706043776
C         0.99272672462406   12.92062178218721   11.80327478628925
C         2.10359639824959   12.45864592843441   11.11165480765120
F         5.94739374548656   14.69272984747853    7.63881633215017
F         5.03930645545193   16.13090800822381    5.53513858157918
F         2.48980350566976   15.75231106082086    4.61163401056473
F         0.88004769497927   13.90048665155276    5.82000652232053
F         1.81071591732528   12.46108509569885    7.92461443313432
F         3.69461767762461   15.52747551220517   10.14857972180858
F         1.52607858991596   16.49059469634080   11.47324094004986
F        -0.27353340061689   14.76101538889015   12.58854651443805
F         0.12876745441081   12.06390970004430   12.36834349243433
F         2.29594813993526   11.12147798086916   11.02820826143770

