155
CSD_code = BOLSAY | q = 0 | S = 0 | Stoichiometry = C60H84N6O4Pt | MND = 4
C         8.21927681842860   16.31501736262869    5.04064713535835
C         8.71037125073185   15.22685886854999    4.30843977117460
H         9.54044420963437   15.20259348673537    3.63277814779310
C         7.86756566288706   14.17017225710079    4.65585695872768
C         7.73782815300625   12.77856499026714    4.33520721151060
C         8.55943595663924   12.07687493058693    3.45133943657021
H         9.35989761172490   12.59824717702170    2.95171257298507
C         8.32857092306653   10.73384798643310    3.23844523722949
H         8.95079541189255   10.17190101756359    2.55815575101425
C         7.28221899472717   10.11519050291250    3.91310444331142
H         7.07592943957939    9.06853861622362    3.77390072151279
C         6.49733444947458   10.86305317566956    4.77128090897534
H         5.66274919241972   10.42698837198309    5.31284624604502
C         3.01248930879202   10.40225323909827    7.36505336406180
C         2.52906099797067   11.51798647682696    8.06020469654273
H         1.69531160641757   11.57432815843194    8.72901594318853
C         3.39729087354180   12.54705546038020    7.70424158880674
C         3.53182285042090   13.93942041518078    8.01537501051898
C         2.69364239496664   14.65369415757908    8.87378016949651
H         1.87275388285547   14.14405762971169    9.35173654787317
C         2.93450784963367   15.99419838550566    9.09133052991172
H         2.29840413521797   16.56442076906250    9.75150374662480
C         4.00947813232540   16.59870791886945    8.44873687666315
H         4.22778918570237   17.64431601611503    8.59489173389124
C         4.80347976075757   15.83807010567508    7.60974054920185
H         5.65219569945535   16.26213138745136    7.08123325033112
C         8.67248911163464   17.69408311039146    5.11272118476731
C         9.79223070664741   18.13713456266733    4.41513136358890
H        10.34000986667456   17.44377712402975    3.79902976959378
C        10.18679116121241   19.46519522271513    4.52747358331714
C         9.46382653187470   20.34130413896509    5.33101232414906
H         9.77757501394202   21.36828715706512    5.41265171807815
C         8.34436606248788   19.89961746444937    6.02734223844843
C         7.95143523064910   18.57479301521263    5.91489294756755
H         7.09247728427237   18.18667771209165    6.43300076503300
C        12.05851089451987   19.19144495992660    3.06624673294600
H        11.45578653458744   18.78995233519557    2.23859911965941
H        12.46902811165182   18.34808491287140    3.64010470597831
C        13.19329141171803   20.04986399523777    2.51727035545040
H        13.77198452748008   20.43832172414937    3.35683813658150
H        12.75963969737323   20.90184615187641    1.99127977572737
C        14.09980354133583   19.26107044194011    1.57737583742658
H        14.50900155697744   18.39759785350119    2.10753505799563
H        13.51109812138913   18.88409303772251    0.73754225128714
C        15.24683375887310   20.11724298851900    1.04610363922224
H        14.83687473773599   20.98681693506193    0.52743823952680
H        15.84104983729229   20.48431561039073    1.88602007703374
C        16.14971427735462   19.33996928575239    0.09105877232360
H        15.55679760342534   18.97887442754199   -0.75293184319615
H        16.55433770951952   18.46570508821259    0.60701390975511
C        17.30160061759112   20.19507817069541   -0.43115906192496
H        16.89683388517668   21.07219777970654   -0.94168637344596
H        17.89755093857199   20.55097211407424    0.41262695447940
C        18.20243808254297   19.42460657201927   -1.39343326915348
H        17.60769398974668   19.07130615651107   -2.23902425913409
H        18.60638633043420   18.54644511318078   -0.88428921107506
C        19.35067588099774   20.28494715103946   -1.90644811080532
H        18.96803894366688   21.15633270767225   -2.43342243104432
H        19.97920990151223   19.71898482045168   -2.59010000490703
H        19.96729872863071   20.63023311734561   -1.07941891791790
C         6.56915021836684   20.40569102353160    7.52261060317582
H         6.84725182963875   19.59531747793092    8.21223987391185
H         5.79488279292586   20.02949535225456    6.83802310088975
C         6.02744356496822   21.59136962634361    8.31320759386668
H         5.76525779728345   22.38929726590895    7.61709488302447
H         6.81500344834699   21.96632566617638    8.96837309431930
C         4.80656833140839   21.18938166395755    9.13626984532400
H         5.08294744779665   20.38219986585041    9.81974863625450
H         4.03099848698998   20.80680351783457    8.46760354955482
C         4.24332075510073   22.35714224439218    9.94193824655504
H         3.96412752257059   23.16418575715324    9.26127826767519
H         5.01722769169501   22.74136247173569   10.60980995868571
C         3.02464696260944   21.94474050631983   10.76453772993326
H         2.25118480810323   21.55974827570556   10.09525553960776
H         3.30510164716199   21.13576062998203   11.44375390061261
C         2.45582043029183   23.10673822710492   11.57472010610244
H         2.17499529552197   23.91613273541858   10.89682319324707
H         3.22795737186611   23.49126037642096   12.24516471267433
C         1.23713543192822   22.69244726804653   12.39605483070849
H         0.46419925515209   22.30928162165645   11.72560098189279
H         1.51779226882881   21.88247061444452   13.07350421682062
C         0.67464939918977   23.85531149491420   13.20396633856057
H         1.42496241712462   24.24022052292832   13.89109390364938
H        -0.18988712275771   23.53816404840217   13.78247571721782
H         0.36846427735483   24.66470153163675   12.54484669839274
C         2.49097187376776    9.04490521103434    7.36116292087769
C         1.22659349097876    8.78811012290101    7.88537982393721
H         0.64210619496943    9.60556559809409    8.27207833386126
C         0.73037351253734    7.49160666659713    7.88827326639250
C         1.49948957323044    6.46113923507654    7.36069937486122
H         1.11664840861178    5.45453620519346    7.36465770102715
C         2.76246876301088    6.71345756893862    6.83472352048975
C         3.25966047731256    8.00999388643400    6.83472650268911
H         4.23275561581409    8.25649907650759    6.44499847481288
C        -1.28355246876308    8.11178433412848    9.00686704492963
H        -1.57165832161597    8.88576812100777    8.28065401134504
H        -0.72568231382771    8.59101635306330    9.82433865518365
C        -2.52869743323688    7.42898896254449    9.56251120602457
H        -2.21458422520971    6.64133371280995   10.24919246263664
H        -3.06619011421346    6.95675031094818    8.73893773407743
C        -3.43739030244553    8.41999104194784   10.28385002460717
H        -3.74612714556946    9.20260636612764    9.58654127709636
H        -2.87917981135858    8.89984369590363   11.09158010237142
C        -4.67672293812391    7.74257176880783   10.86335283762352
H        -5.23925073483130    7.26763490661419   10.05665376918836
H        -4.36691987519975    6.95719327323992   11.55629302358955
C        -5.57935890499529    8.73358391772711   11.59457774784752
H        -5.89214441843498    9.51722083222851   10.90023993102801
H        -5.01314623705008    9.21232560467145   12.39727458176494
C        -6.81586095809354    8.05981027653023   12.18413110717077
H        -7.38291750486281    7.58068420457026   11.38255057908916
H        -6.50326216233797    7.27743716910022   12.87975844138953
C        -7.71723358236976    9.05213958662807   12.91499515309173
H        -7.14924044682671    9.53289603012222   13.71495781645991
H        -8.03229438312378    9.83300297797664   12.21886015051581
C        -8.94747417518301    8.37402995726406   13.50529488946512
H        -9.53886665243980    7.90683615169823   12.72068135300517
H        -9.57360875743795    9.09773097246247   14.02226521775284
H        -8.65437794514196    7.60421601872204   14.21592600975456
C         4.72813149371958    5.72938518648578    5.86491493923658
H         5.33804625310434    6.37845025248572    6.50585175111349
H         5.13606545581929    4.71470851728199    5.91817912409365
C         4.76904892245403    6.21612460778999    4.41412624534610
H         4.36841940205227    7.23004033889927    4.35558532629201
H         4.12568650949171    5.57056406030933    3.81338374322852
C         6.19400231204644    6.18571390120030    3.86951895898126
H         6.83487418452417    6.79390814651198    4.51448213789928
H         6.57508677692456    5.16256951482980    3.90702694561697
C         6.27705209839073    6.70238608861267    2.43460907969558
H         5.84416417211180    7.70495106486695    2.38334106111540
H         5.68148903575805    6.05990033731358    1.78297133733140
C         7.71791772863291    6.74307204384889    1.92795232386724
H         8.10695609639253    5.72447939468685    1.86359940851434
H         8.34130899426288    7.28287771106798    2.64605846516146
C         7.83166204300484    7.41732232727384    0.56312984162236
H         7.21789660016194    6.87609658120137   -0.16030451871162
H         7.43992306219386    8.43583741666872    0.62994100034049
C         9.27453359814727    7.46338774587369    0.06508989289216
H         9.89389485489503    7.98876422480013    0.79675960578608
H         9.65958299690237    6.44451803027363   -0.01803997150237
C         9.38764304671235    8.15892210972304   -1.28574031065872
H         8.79267084105113    7.63821750330251   -2.03257004008582
H        10.42147542907256    8.17707456245241   -1.62265075144694
H         9.02954512982570    9.18416155752565   -1.21919446771636
N         6.95088125182353   14.64957908476520    5.54076598427080
N         7.15675267972971   15.91834361251661    5.76954197700476
N         6.71559163239179   12.15925627013535    4.97928205797036
N         4.32229956467533   12.03135603414978    6.84757920260036
N         4.09758972953932   10.75597827727637    6.64779224755187
N         4.57421950624161   14.54458491240149    7.39539374978925
O        11.26536092119616   20.01089229232197    3.89707537370827
O         7.70007371765857   20.82823097908868    6.79097723896163
O        -0.48606516795009    7.12768709371238    8.38462777442186
O         3.41913728644465    5.60971299830139    6.37378905236459
Pt        5.64332807180695   13.34112349470181    6.19271911781351

