71
CSD_code = BOLTIG | q = 0 | S = 0 | Stoichiometry = C26H40P2PtSi2 | MND = 4
Pt        2.87051236416971   -0.14442024169494   -0.77226812118912
P         4.03877369308115    1.27441528267234    0.70507317024315
P         1.54856626541626   -1.16609215690848    0.91172610761812
Si        5.40200160414592    3.11613271402200    2.74717081086700
Si        0.34684434520334   -3.21397920925032    2.86103132878557
C         1.91927123907974   -1.34270554283768   -2.14537137524742
C         4.02899893946527    0.50254729280278   -2.33800311175722
C         4.88872587687059    0.45836644738207    2.13800709922692
C         5.06359832583133    1.34427037563038    3.36962030229564
C         5.42176069579139    2.33203018856450    0.07349533871008
C         6.38759933066197    2.86176950817472    1.13605378933503
C         2.97591344878723    2.54903509817154    1.52892580607444
C         3.71175371303135    3.74349572139106    2.13604287824282
C         6.25553801419710    4.21670631907776    4.01006796043260
C         7.37809147383126    3.76210403009629    4.69070079962851
C         8.02573382567137    4.56112873804608    5.61444048400349
C         1.27429742416499   -0.59423209977881    2.66324427561766
C         0.29161385573658   -1.41960294164521    3.49722425221739
C        -0.16901759744271   -1.75818168836533    0.54630934188134
C        -0.51936970577569   -3.11259824563109    1.16448299581098
C         2.47692643073081   -2.74786831775524    1.15931141895706
C         2.19103345838014   -3.48847512811947    2.46384014156962
C        -0.40326851194930   -4.48009016998178    4.03115788358432
C        -1.19624033874426   -4.09208533310824    5.10301867603885
C        -1.76100988460356   -5.02911387970483    5.94909411068588
C         7.55689633311855    5.83847105515177    5.87204963356397
C         6.44209737298955    6.30818915570151    5.19876554047091
C         5.80075468600581    5.50125267099634    4.27649709212297
C        -1.53953758082008   -6.37855343389421    5.73300176411182
C        -0.75287101175607   -6.78200615146868    4.66713193446941
C        -0.19299253972895   -5.83786230597033    3.82651800086859
H         2.52428298363241   -1.63138168284905   -3.00614178831354
H         1.53996417106595   -2.27395675026953   -1.71005975897590
H         1.05212554167177   -0.79245796905177   -2.53501676116831
H         5.05146538649768    0.12267512392001   -2.21832264447585
H         3.69536740663262    0.21682412182590   -3.33465944877072
H         4.08061825148032    1.59733598165317   -2.31899553826499
H         5.86152834645119    0.14144497431052    1.75076094678851
H         4.34064978265747   -0.45609264477544    2.38101835095669
H         4.15605463544010    1.32145973152967    3.97446716981516
H         5.86122182693047    0.94549999295306    3.99771771657391
H         4.94133985291673    3.16032972322793   -0.45486617253701
H         5.95720503434440    1.74790127079669   -0.67866631761038
H         7.19439695426787    2.14557260624896    1.29370897660586
H         6.85909686403474    3.77642113761919    0.77380465634543
H         2.41887727742372    2.01927616648817    2.30441359969488
H         2.24420273242293    2.87081026476279    0.77997106070560
H         3.85067894398136    4.51637323393804    1.38003434202289
H         3.09610459462505    4.18411118629470    2.92117157966192
H         7.74932837383507    2.76743661071659    4.49256967912852
H         8.89660211361828    4.18995267752390    6.13544455509454
H         0.93796137185084    0.44561854108434    2.60027858300696
H         2.25568720648170   -0.58170187181364    3.14335675680620
H         0.55099168490243   -1.32887733849140    4.55290673841984
H        -0.71454173871980   -1.01388348460940    3.39109958573699
H        -0.30132010962876   -1.77508516990355   -0.53670948644217
H        -0.83322490706566   -0.97914281999817    0.93203515327207
H        -1.60392349459802   -3.21458400952272    1.22818868750726
H        -0.17358981569086   -3.91535290715838    0.51268668978201
H         3.54281737696991   -2.51081355646711    1.04996346467382
H         2.21512092032216   -3.37176729808957    0.30116149664655
H         2.46470255534230   -4.53828352706242    2.35443396889334
H         2.81518261487233   -3.09108181530821    3.26545044029402
H        -1.37346828877282   -3.04117493157271    5.27623957840943
H        -2.37541752818407   -4.70862669351137    6.77828452832868
H         8.05938017328757    6.46553769894350    6.59400226390415
H         6.07390749148122    7.30519783482902    5.39372428581500
H         4.93303990040681    5.87383927295644    3.75308836878329
H        -1.97878721171666   -7.11316594658404    6.39206168169133
H        -0.57769252419526   -7.83391610562328    4.49287707226630
H         0.41766770314776   -6.15861938078384    2.99555560973907

