59
CSD_code = BOLVOO | q = 0 | S = 0 | Stoichiometry = C20H35BrNiP2 | MND = 4
Ni       17.23500442878262   15.27128934808873    1.71824433148494
Br       18.36387278299917   17.22596906636382    1.71765778403369
P        15.39006200969692   16.13130324987991    1.10995952513710
C        14.37879447313569   14.71344651042180    0.50789760061467
H        13.31822262332098   14.82354252696489    0.75440432137315
H        14.46978040977643   14.64483885677809   -0.58152727798022
C        14.98995962199081   13.49478445274763    1.14496637547141
C        16.26624608103996   13.59319984538778    1.71785083642979
C        15.34278247152964   17.40092054100590   -0.24269400043013
H        15.84209177322791   18.28727885885602    0.16766005667363
C        14.34888674067627   16.82410421001742    2.48192559428501
H        13.31541421500358   16.90131414850374    2.11971430760301
C        14.30080562748181   12.28959399024319    1.15019726093815
H        13.31706452916189   12.23959659428848    0.70263832597624
C        14.86223528182157   11.16141092972886    1.71781707481250
H        14.32214890678465   10.22590195791259    1.71781566915988
C        13.93036068900473   17.76090259088332   -0.68680868654835
H        13.97654453198509   18.49214019880135   -1.49240010366939
H        13.35474245388752   18.19432228078827    0.12774299898634
H        13.40132046625034   16.88505605833235   -1.05850539042264
C        16.18887803947695   16.88494383434298   -1.40537126178572
H        15.71224891379267   16.03892540953591   -1.89910118622105
H        17.16885403598278   16.56769815314680   -1.04354258504211
H        16.34130717113830   17.66849416167782   -2.14457585078844
C        14.41021163860259   15.83074831040265    3.64030209081814
H        15.45000701210101   15.68584902204755    3.94689559924725
H        14.00380957817212   14.86141163543830    3.35412681274161
H        13.85091042454497   16.20161243810475    4.49787808906057
C        14.85422945929432   18.19540158874450    2.91920919349459
H        14.30794133181614   18.53116483114838    3.79955250051461
H        14.72378210747205   18.93755647446537    2.13509479760587
H        15.91250847373846   18.15035477574420    3.17126255776998
P        18.90238838778919   14.10343324001190    2.32585776950118
C        18.18005583834166   12.51873607544125    2.92790163594414
H        18.80569681653157   11.65529205805429    2.68146568594364
H        18.07505764695805   12.56326062436438    4.01731953442196
C        16.81912089729228   12.43868872138184    2.29073567155862
C        20.02550501699763   14.69727044360480    3.67853137681903
H        20.54349406627144   15.57287876447740    3.26823450519340
C        20.02293351907011   13.54815948734369    0.95385176883652
H        20.60649046050582   12.69171383458757    1.31604499611271
C        16.11997028020949   11.23927578019380    2.28546385385983
H        16.56852269304352   10.36232418786012    2.73302312216348
C        21.04341698137452   13.65400397114828    4.12257242269017
H        21.65364405267420   14.05956044512196    4.92814538481930
H        21.70652370211842   13.37219580846908    3.30798255554144
H        20.54938262728944   12.75793825683611    4.49425848588058
C        19.15564087533738   15.17197786520283    4.84125555912527
H        18.66119647023475   14.33618527886350    5.33488546468203
H        18.39097877593299   15.86216260588264    4.47950867061764
H        19.75804652956478   15.69561456742236    5.58053117012356
C        19.13195097584672   13.10466527707717   -0.20452135930824
H        18.48661554461179   13.93274751416250   -0.51109561459314
H        18.49563146501641   12.26808015662283    0.08166461580789
H        19.73274763794430   12.80568442752387   -1.06210330229627
C        20.95791826850493   14.67139056971300    0.51657128234472
H        21.52187270372574   14.36611074030112   -0.36373327610188
H        21.66584195817553   14.92949092859092    1.30071064703550
H        20.38982750494740   15.56538151894758    0.26445001193283

