70
CSD_code = BOLXUW | q = 0 | S = 0 | Stoichiometry = C26H41ClSiTi | MND = 12
Ti        8.22616701722123    0.75112057930151    3.23668956430265
Cl        9.49234445821074   -0.63863990533960    4.36283508205423
Si        6.89197681288773   -2.27516527136166    2.39228293556939
C         8.82480941053983    1.89546468914492    0.97905973462390
C         9.74651898961014    1.19402041315749    1.88656706073508
C        10.60992260668493    2.25433833346160    2.42125078326168
C        10.26012750866522    3.45108444520298    1.85323700822307
C         9.14997623920507    3.23142209455069    0.96176122386041
C         7.85415579118185    1.19537536440773    0.07281653506213
C        10.46180304241242   -0.05355011652848    1.36756514546888
H        11.10955892431655    0.23319138588451    0.53274032554801
H         9.75742345600772   -0.80829884793827    1.01456400940060
H        11.08886992043418   -0.49672831523016    2.14205010490585
C        11.74794421762818    1.98412997180108    3.35773891973418
H        12.64441712435592    1.70754976935112    2.79786937636243
H        11.50423733283612    1.16301562367384    4.03384485415812
H        11.98944339508752    2.86409884953774    3.95256683052358
C        10.92780731607577    4.77706052154492    2.03732193820128
H        11.57734076403670    4.77272749912907    2.90931894406594
H        10.20213995102332    5.58158535158829    2.14889824619886
H        11.54100221938098    5.00644825644617    1.16483214511686
C         8.54982987398928    4.30099701308573    0.10372111248759
H         9.19991081045326    4.49497549517194   -0.75133975017000
H         8.44116769564413    5.24012491155831    0.64572325653455
H         7.57537346290624    4.00566618669186   -0.28033089006438
C         6.05512801366281    1.07073188639783    4.18547742945630
C         6.95708465183243    0.97497611206789    5.27332952018859
C         7.89907527079482    2.03144712537613    5.15579609976897
C         7.55596971879975    2.81941697498503    4.02285761491586
C         6.43494901598102    2.19904376812254    3.39949685576573
C         6.87844997853783    0.07716351060066    6.47226109674715
H         6.05820111611413   -0.63069098987077    6.38892471577553
H         6.71979284573076    0.68088354332033    7.36904128381209
H         7.80561506485321   -0.48205342116163    6.61035289682880
C         8.97209927501933    2.34139005260203    6.15747301721430
H         8.55087697864849    2.87586069973076    7.01343413199922
H         9.74916432201825    2.96558609697124    5.71740253554776
H         9.43188661625685    1.42379476674913    6.52689766616255
C         8.00859113311937    4.23227103813512    3.80813832066451
H         7.44246168294371    4.88848259671023    4.47637995997843
H         7.82678319493362    4.55765177688299    2.78831352407808
H         9.06504524596766    4.35548487959133    4.03446239576521
C         5.59566412091673    2.76648662285001    2.29255833847734
H         5.21810432061452    1.97233788120004    1.64758904973915
H         6.16468212221444    3.47136832614089    1.69061801626706
H         4.73586381882069    3.29704109980744    2.71162543498352
C         4.76606938001653    0.32965913394628    3.98278321723608
H         4.59498054705435   -0.38592496833041    4.78227655239078
H         4.75399204283679   -0.20520640122708    3.03213941584519
H         3.93520676810404    1.03897012090747    3.98113019338023
C         7.27622557912722   -0.10773141120862    0.59869046849694
C         7.30489323552866   -0.48553303525494    1.88323785240835
C         6.71265842909399   -0.91464534681477   -0.54921726686474
H         6.06901032373294   -1.71454004986589   -0.21035866474714
H         7.52950912787043   -1.35114227807350   -1.12542274290482
H         6.14739044799885   -0.26760673215655   -1.22014937857331
C         5.26303908551776   -3.03901065353689    1.69254839879158
H         5.43849002593603   -3.59548008101908    0.77769630716037
H         4.50156007955136   -2.29294091092850    1.48543767529312
H         4.84269346116280   -3.73446838543136    2.41193882041093
C         8.35881905472881   -3.35354646797307    1.77709947630959
H         9.27772280516939   -3.06321764047508    2.27997027512463
H         8.51788188035259   -3.25264371629839    0.70738094497838
H         8.18562078473472   -4.40489511860021    1.98596429256052
C         6.72771397462868   -2.63404016017183    4.26531386824966
H         6.83431792486305   -3.70302647573131    4.42779992625459
H         5.75792735322948   -2.34787545555676    4.65735640180093
H         7.49540831373205   -2.14166019474298    4.84950710924435
H         7.02844371545956    1.86894677924556   -0.18641013712836
H         8.36786881099325    0.96887080379521   -0.87292740601767

