83
CSD_code = BOLYEH | q = 0 | S = 0 | Stoichiometry = C30H49ClSi2Ti | MND = 12
Ti        7.55180867346239    4.67988010017523    4.17866759511125
Si       11.30254106090023    0.72991746545687    2.38578251258072
Si        7.83195342568812    1.37302338629242    4.95339521033733
Cl        5.54495763071363    3.95327268766639    3.69523298715003
C         9.55548134475202    5.13734089394297    2.46949667134182
C         9.90792757060546    6.41439411431838    2.11698392843495
C         8.74134007928724    7.10018162051980    1.61227110861131
C         7.67369635739205    6.24912339198777    1.67293849052999
C         8.11827503981773    4.94620157928725    2.19485513057073
C        10.48139015003979    4.04073022126431    2.90668700193151
C        11.27194793200383    7.02901741279648    2.15189859834351
H        11.95599233711242    6.44717858329151    2.76648989328468
H        11.24213795845830    8.04981492570201    2.53374548565452
H        11.68427385485857    7.07347252301832    1.14236249909789
C         8.77318538585598    8.49572458156013    1.07623216985384
H         9.30195192347247    8.51420371414705    0.12212404691881
H         9.29299593901462    9.17402168443829    1.75252741603279
H         7.76792813187336    8.87526098480603    0.90966559346377
C         6.27281844702605    6.49811583162869    1.20228814803281
H         6.16143365695052    6.19472038629252    0.15864836432197
H         6.01465810028087    7.55437271678185    1.26717661163358
H         5.55892153922119    5.92775642795925    1.79941115994545
C         7.71879843558091    3.73968289068877    1.34113021720353
H         6.63803236903945    3.70131764370635    1.19795085012148
H         8.04766484732292    2.80311007278449    1.79189209397691
H         8.18484696767183    3.83425845740285    0.35494082893128
C         7.99220663942101    4.98670010144313    6.49867294535650
C         8.82166101896160    5.84679765714046    5.72027398049927
C         7.98558698474536    6.78864721830428    5.05294474224070
C         6.64015867580252    6.46810492465520    5.38275386125738
C         6.64524074411197    5.37854848227411    6.29228748189372
C         8.53226080215411    4.03368124437039    7.52493682592333
H         9.24203542308311    4.55608151434704    8.17027375412638
H         9.05165694718147    3.19310448025556    7.06070908276484
H         7.73507890705056    3.64128432549892    8.15095533716403
C        10.31550729136386    5.91072842535803    5.84691110016206
H        10.75668955662666    6.45394668332114    5.01444561616919
H        10.74548152685483    4.90966378861622    5.88223735291283
H        10.58851077367172    6.42842738748162    6.77122335167427
C         8.43093315507696    8.10561850185791    4.49185517658704
H         8.42683368229585    8.84984599584036    5.29413430003608
H         7.76563406846902    8.45587965609614    3.70624346518173
H         9.44020826748697    8.04667716179953    4.09589156024456
C         5.41833566564737    7.23760100200160    4.97558800491593
H         4.58706396508403    6.56228564465950    4.76721325395703
H         5.61093753900492    7.83540329410918    4.08571593814556
H         5.10981762975278    7.91257203543854    5.77851676280477
C         5.41870592844464    4.91584061237398    7.02227451462159
H         4.64352784463481    4.58639560743181    6.32779186427101
H         5.00848003534717    5.74455721461535    7.60466601370627
H         5.64187206744954    4.09904805110323    7.70366719967392
C         9.86965407242604    2.93509245338301    3.74881460503423
C         8.65464615247566    2.96342115225466    4.31356721029120
C        10.83560076953410    1.81698242529090    3.88459327830084
C        11.46655974901607    1.65466474717902    5.04259531497069
C        13.12129797704507    1.12449276628478    1.93927905120859
H        13.77753394276130    0.96456221931164    2.78909825824528
H        13.24571362249429    2.15593682816362    1.62282996724889
H        13.47153480439699    0.49018501503221    1.13070167277981
C        10.22685940711851    1.00718561326003    0.83514703891121
H        10.51444352391409    0.30771914573634    0.05525920448747
H        10.33182073384937    2.00685014320519    0.42654349898171
H         9.17328233863497    0.84800119779005    1.03894391502785
C        11.16913550681935   -1.11083690950796    2.87331152593439
H        10.13813210104162   -1.40565688452941    3.04331061760694
H        11.72637721647323   -1.32641693921168    3.77941791781783
H        11.56616108978533   -1.74685589423962    2.08779382453715
C         7.09878918010698    0.49448760771296    3.40903914313936
H         6.52678489823632   -0.38147550680315    3.69932562388441
H         7.87673566408792    0.16449702206903    2.72760583388122
H         6.43081058733990    1.15770350551916    2.86536146921394
C         6.35295192793250    1.64694663101158    6.14107779271427
H         5.73605597370726    0.75276707129116    6.15218811877077
H         5.72201357637482    2.46830125889074    5.82179004278573
H         6.66797310127741    1.82808864854802    7.16302605091008
C         8.88012958077965    0.05968819231340    5.87997371697305
H         9.41049060682536    0.48231157068290    6.72677311812760
H         9.61438039638766   -0.40233864497386    5.23313914316839
H         8.23172019717809   -0.72351908793024    6.26111746382430
H        10.90868772062998    3.56409992069461    2.01408924249607
H        11.33407055634430    4.45926318583961    3.45411481149534
H        12.20508128731080    0.88482477602699    5.19350657174807
H        11.26528743956482    2.28569146140991    5.89638685579636

