90
CSD_code = BOLYIL | q = 0 | S = 0 | Stoichiometry = C34H53ClSiTi | MND = 12
Ti        1.90850857215240    6.96461648009120    6.03891416104787
Cl        1.42889980888298    8.54815054532916    7.57142684365043
Si        1.58021397392772    2.92224893961284    7.95735546626967
C         3.89113703131543    6.11323236057738    5.41216556351819
C         4.14780650873023    6.47480762271492    6.77426888771670
C         4.13052539557440    7.88576970323597    6.84592834024766
C         3.84936686988516    8.39721797721181    5.55435407924060
C         3.78440450880105    7.30800024424409    4.64461060610804
C         4.01863174746379    4.73764483306756    4.84571573107526
C         4.74616333110420    5.56778416101342    7.81001408913666
H         5.82667548921588    5.73519221994372    7.83815167114046
H         4.56455102064795    4.52462448814149    7.56720848020056
H         4.34935878059065    5.76697495179560    8.80183872276041
C         4.52719537864005    8.71844146657776    8.02537485301201
H         4.54379913671837    8.12372829220138    8.93552298035594
H         3.84342231925906    9.55368490129073    8.17030448969098
H         5.52771417717533    9.12683298292263    7.86144737791421
C         3.83092202167765    9.85928972264405    5.22421414857785
H         4.83120385500196   10.28474980779930    5.33532329602819
H         3.16498011584811   10.39412743359049    5.90352653346099
H         3.49902188243570   10.03552949564309    4.20254389972238
C         4.13466777916721    7.38071173822196    3.18552110963441
H         5.20633267191847    7.17874193551494    3.08913994539227
H         3.95362438304145    8.36773555123228    2.77079525921559
H         3.61165068356220    6.64258593830999    2.58291271491691
C         0.75965406714886    6.15581480312758    4.11751495073526
C         0.88957016737256    7.53691907461358    3.81089651409235
C         0.20188274561414    8.26789182176635    4.80886401346723
C        -0.44086915642130    7.35343334076615    5.67782092972468
C        -0.07169446389204    6.03722087282845    5.27874377720321
C         1.04272717355084    5.00627779408338    3.19423741229979
H         0.12737884704204    4.73599313654379    2.65978316562991
H         1.37689199313204    4.13188111488574    3.75085507700417
H         1.79568228837324    5.25789401649120    2.44969817240139
C         1.22104890967715    8.13882577900289    2.47548378068327
H         0.28307407467959    8.44316043757616    2.00253075715300
H         1.70568616044371    7.43070974107619    1.81032622703203
H         1.84066719117041    9.02981843155089    2.55825515224264
C        -0.02799716556548    9.74844142757230    4.81518288729289
H         0.72797305079139   10.27016026588776    4.23199275150274
H        -0.01142237888498   10.13529376828164    5.83359899172257
H        -1.00688436514050    9.97686983846891    4.38542859617229
C        -1.56874657660623    7.73927897360830    6.58688678086447
H        -2.37611521648599    8.15738058229832    5.97958101769929
H        -1.26921435256005    8.50331342832876    7.30392178331176
H        -1.95833293778690    6.87943600191403    7.12406401103388
C        -0.79575538925271    4.78495257482975    5.67820933495656
H        -1.00233282156039    4.77370332662095    6.74633296231896
H        -0.21132881228816    3.90213948864281    5.43096765716354
H        -1.74664117119760    4.73152384547416    5.13961460379354
C         3.17495191675666    3.67160168051679    5.52150363029069
C         2.28311096066799    3.93084119707374    6.48878883341279
C         1.84793138414310    5.20986408805934    7.13791201292548
C         1.40743579827467    4.76293194118288    8.35134688953110
C         0.96019268140321    5.42024518350497    9.63157767209217
C         3.53915392253855    2.25296864773607    5.06817408351406
C         3.90141375185777    2.20702185445902    3.57323871803738
H         4.09431108055717    1.17601176318242    3.28195637470875
H         4.79661861430344    2.77888464943904    3.34773904375378
H         3.08118253561648    2.57853452650443    2.96264085919055
C         4.75590371321864    1.76462148442830    5.86895784663089
H         4.54811544839250    1.80265718943844    6.93372210557609
H         5.62890485200966    2.38187963222654    5.66797909384704
H         4.99800615651026    0.73904235470515    5.59695797001911
C         2.38586132289148    1.26488403212855    5.26913144435598
H         2.59167616015385    0.34105674068402    4.73161113062402
H         1.45260964443717    1.67834931233550    4.89523646500752
H         2.26055661897705    1.01631399457980    6.31514491354417
C         2.77645102410417    1.87663860464995    9.02651304951059
H         3.70215064638913    2.40502967347247    9.23282461458953
H         3.02682718813629    0.93170550408004    8.55409556105960
H         2.31283785184787    1.64066585585159    9.97943729914350
C        -0.02716114689072    1.89896387467821    7.81163551258175
H        -0.42395337585448    1.70824413883519    8.80386955009891
H         0.15280472072957    0.93503652424410    7.34774240260127
H        -0.79726369816184    2.40331457660974    7.24101218033073
C         2.03614703405661    6.37137180863999   10.16721062102858
H         2.92204155989818    5.80948137577955   10.45968187294504
H         1.66602070840488    6.90170193437328   11.04287091907406
H         2.30487480656692    7.10126913918850    9.40815974965318
C        -0.34006755513115    6.19456717460630    9.40390534074188
H        -0.16924420911749    6.98010495373204    8.67662114851533
H        -0.68086791286428    6.64543980373260   10.33424791864798
H        -1.11889261581426    5.52486008013383    9.04219435179974
C         0.69977929124449    4.34733015651242   10.69524542909206
H        -0.07236764546343    3.65717734845325   10.36448516275415
H         0.36765305344099    4.81333440298983   11.62129014362177
H         1.60544782769946    3.78404916402839   10.90332276133692
H         3.79513975245689    4.77327714614315    3.77760477949228
H         5.06822682752292    4.42586880791520    4.94283998678373

