41
CSD_code = BOMDOX | q = 0 | S = 0 | Stoichiometry = C17H19INOPPt | MND = 4
Pt        6.56721634646360    4.15245323427359   12.19502923303146
P         5.89395527937181    6.19592327755352   11.52631775494846
N         8.32390898058387    4.70410426802235   10.91484102209363
I         7.50873664038900    1.81675200155797   12.65776198440931
O         9.31435571695859    6.06326168971492    9.45738910733741
C         9.47501467219749    3.94850468398645   10.46697103229035
H         9.14670332520806    3.00911548024037   10.01663161843321
H        10.10881172100557    3.70738268629701   11.32335649034328
C        10.15139373097236    4.90142296679355    9.45798271617616
H        11.15727901685503    5.20272525778083    9.75941286446260
H        10.18279211079870    4.49976444430637    8.44255946334497
C         8.31547261745223    5.82840311083424   10.32390152241757
C         7.31228876674013    6.90293021936705   10.53606093760929
H         6.99739702463194    7.30720111830441    9.56969072666602
H         7.78710361189635    7.70663025740316   11.10901805818246
C         4.85198904255423    3.73761776934891   13.24380964078214
H         4.06602798600831    4.48460606507768   13.09361861023543
H         5.08736488730993    3.68072936656450   14.31210848933651
H         4.45745237643795    2.76494219176456   12.93651743545270
C         5.37640488105061    7.64346360210376   12.49685264747285
C         5.39593974729305    8.93671604545325   11.97950228068770
H         5.73436304969423    9.11746465941300   10.96831611581817
C         4.98710611236801    9.99929111968599   12.76446821393758
H         5.00146194282876   11.00102367032710   12.35997131138553
C         4.56314425959970    9.78314154221257   14.06624183117687
H         4.24579150910570   10.61747289839502   14.67370215964763
C         4.55597420662837    8.50080876419840   14.58913986443305
H         4.23722106970917    8.33236216113747   15.60678734889832
C         4.96325835919765    7.43406811688299   13.80801659677743
H         4.97739570274342    6.43061985745236   14.20921809445925
C         4.61486799260387    5.99218256442318   10.24554689359148
C         3.71993486522188    6.97662892717192    9.84586852320113
H         3.72860229227031    7.94748947475633   10.31980919823612
C         2.79879665682638    6.70301806141853    8.84940359025549
H         2.10103397004195    7.46819678480402    8.54211091922765
C         2.76404597655622    5.45414436828026    8.25136829860197
H         2.04136646367039    5.24871709109351    7.47585559358416
C         3.64394276943978    4.46354299305254    8.65889221052361
H         3.60615247463910    3.48400195045409    8.20654644209733
C         4.56098007238570    4.73065226101940    9.65668212946778
H         5.23855177230069    3.95232299708109   10.01302102895803

