32
CSD_code = BOMJES | q = 0 | S = 0 | Stoichiometry = C8H16ClCuN4S2 | MND = 3
Cu        0.04644228978544    0.04690762333795    0.00073330374419
Cl        1.66187969070598    1.66299850981049    0.00160387869247
S         0.60070130213273   -2.07500222217376    0.71905605234093
N         2.88627992099767   -0.84783713143063    1.29442398920516
N         2.73159733139196   -3.09423585032958    1.79306815336095
C         2.18168081713415   -1.97016952270474    1.30576675150778
C         4.06916179374431   -3.16270724140603    2.33539332503988
C         4.93126154652944   -2.10520280727116    1.65219752528829
C         4.24011245567758   -0.75287071780755    1.79094306794883
H         2.45684941430338   -0.00534518337422    0.89423992278480
H         2.13994789223750   -3.90862512686146    1.80378318322929
H         4.05018712710483   -2.98835838741484    3.41971778552860
H         4.46894075090879   -4.16367465768149    2.15687786661432
H         5.03103976865437   -2.35126554980787    0.59393358638172
H         5.92243395803849   -2.07406896843591    2.10153499268077
H         4.75924452099203    0.01493680529269    1.21404630525486
H         4.22839780717810   -0.44032701890534    2.84315711784394
S        -2.07521960864114    0.60089695112500   -0.71850389413839
C        -1.97018651634892    2.18168443698677   -1.30569680041567
N        -0.84781946538981    2.88623618913621   -1.29438410645573
N        -3.09413836246895    2.73148949351580   -1.79338485369715
C        -0.75278208992140    4.24000442764623   -1.79108008936430
H        -0.00555096953734    2.45705549046923   -0.89347884266030
C        -3.16256299661712    4.06900926780364   -2.33582860239523
H        -3.90857665209547    2.13990856239707   -1.80393152082915
C        -2.10513539997547    4.93118359788605   -1.65262166434354
H         0.01496263206239    4.75922996524472   -1.21418282461913
H        -0.44012697972076    4.22811091947636   -2.84325880569786
H        -2.98804799838397    4.04993208606948   -3.42012026910932
H        -4.16355894329275    4.46880769132669   -2.15750282649924
H        -2.35137573793113    5.03110253664761   -0.59441395827348
H        -2.07393929923160    5.92229583145817   -2.10208774891021

