77
CSD_code = BOMMIC | q = 0 | S = 0 | Stoichiometry = C36H35Br2HgN3 | MND = 4
Hg        0.05805885611370    3.18044264815324   19.23369795123115
Br        1.81100089737101    1.82088496651855   18.20974295743207
Br       -1.64756927423536    3.52554740853678   20.95027897861406
C        -1.38381075698684    2.45322456727208   16.33202039781390
C         0.42916924564447    5.37544461118718   12.25258851418275
H         0.62436261700659    4.32333786982663   12.40005613404713
C        -0.00496312980423    8.08083923608199   11.87072546321770
H        -0.17924846915301    9.13767086170055   11.74072816872442
C        -2.34467714277885    2.25831082521831   17.32760295873133
H        -2.75568826842853    3.11345886633745   17.85139300276094
N        -0.44634226068792    4.46555467946516   17.20174360434058
C         0.79009606326542    9.32840886880032    5.30936403917404
H         1.18274537144231    8.70521305011712    4.52270752151300
N         0.84682847107523    5.58158905187580   19.34165465091689
C        -0.21326318339765   10.83499373028631    7.37848628302734
H        -0.60519835080992   11.44063611489093    8.18437602585622
C        -0.18003013712113   11.36197898878285    6.11013077700642
H        -0.53693795571345   12.36900832451975    5.96915204053765
C         0.15815189925090    9.04016709091268    9.00784342897879
H        -0.22481174126927    9.75564123601543    9.72463621526538
C         0.06959363547272    6.16964376210314   13.34272917858156
C         0.49934434813679    6.36072483913179   18.31287245146067
C         0.27724627857024    6.27042487774937   15.82593240106873
H         0.76356458067634    7.22931446039118   15.74499702784616
C         0.34627242175819    7.29063188932178   10.76934869975649
C         1.28227300650223    7.51906431546752   20.65887992571308
H         1.59935879403686    7.93049403071649   21.60332786732961
C         0.09028395378417    5.68226300248983   17.06805483898712
C        -0.66454351406110    4.31891706585389   14.83394243654210
H        -1.00544071372472    3.75247507265641   13.98172013516746
C        -0.81712638495729    3.79251336774875   16.10998384895758
C        -0.10465784634542    5.58414139393845   14.67040597735060
C         0.50921761350543    7.75037171271670   18.41597172743395
H         0.18670006487277    8.35962930020357   17.58687731532159
C         0.47303877871816    7.79971775140311    9.42429338066156
H         0.83252562073277    7.07644996080004    8.70464708770497
C         0.57484493576269    5.92746299189262   11.00077166075987
H         0.86409815993626    5.29589958238418   10.17272345036146
C        -2.83487800062289    0.98751146638008   17.58003865491377
H        -3.58185998478609    0.84661185176872   18.34717314200752
C        -2.36692608863223   -0.09386325147211   16.85128257993913
H        -2.73819015660323   -1.08594178648120   17.06038167978315
N         0.33830451158330   11.13244828009504    3.75530057799522
C         1.22905663064638    6.14718734753359   20.47722766316028
H         1.50384188163183    5.47135388755125   21.27746785282245
C        -0.93668364915196    1.36357293688018   15.58913149197073
H        -0.17703686730748    1.50672790966756   14.83517283044331
C        -1.42417739031248    0.09730643221683   15.85420936422491
H        -1.05748128201222   -0.74555668014044   15.28802508701936
C        -0.13172928427754    7.53440732734689   13.12761858806038
H        -0.42678809490275    8.16562899316853   13.95383153609999
C         0.90389897697759    8.33560228092049   19.60560334211278
H         0.91058232208238    9.41038214961454   19.71007403764119
C         0.75559014141300    8.81194856382454    6.58183206271562
H         1.13174294557565    7.81268403142588    6.73983067568330
C         0.24454964326730    9.54247395570451    7.66030876199764
C         0.31603833132047   10.62123926754754    5.02332308986687
C         1.00383011238123   10.45554098189875    2.66628746060089
H         1.33582325059654   11.21225497229832    1.94941985468353
H         1.89915068125231    9.95125432679961    3.03842692944792
C        -0.33741636111841   12.36302189347666    3.41375796013052
H        -1.23955772675729   12.46958487987121    4.02159230161216
H        -0.65903337227319   12.29604814839134    2.37022655706981
C         0.09641914517164    9.44810146846860    1.94730109999638
H        -0.77570102279147    9.97240319186489    1.55073664679026
H        -0.26436418600781    8.71073459819201    2.66626026350917
C         0.83366379165256    8.74884726893509    0.81319496448672
H         1.18380344116071    9.47239446683797    0.08002899929690
H         0.17798646181957    8.04193895755935    0.31126165569713
H         1.69542008221162    8.20543650432585    1.19474174778037
C         0.55561184079652   13.59930318657941    3.58220321027012
H         0.89817052835642   13.65946251658030    4.61649376368651
H         1.43963387695081   13.48960602045822    2.95045777568109
C        -0.18833450995912   14.87392049408712    3.20699035343456
H        -0.52229858370916   14.83198499459926    2.17237778509005
H         0.45693833223612   15.74077138001778    3.32407435388765
H        -1.06146685191165   15.00827241180558    3.84192477409180

