77
CSD_code = BOMMEY | q = 0 | S = 0 | Stoichiometry = C36H35Br2N3Zn | MND = 4
Br       -2.51581363999234   -3.23464805250760    8.20805600677424
Br        0.76326277415244   -1.85134899593073    5.61404293210659
Zn       -0.79685984663828   -1.84283142755435    7.38354677564180
N        -0.25696171020420   -0.83649125359579    9.17681175733479
N        -1.59073074050557    0.16621216759230    7.08665812094869
N        -0.27138872179929    5.72287022591894   22.68055337949396
C        -2.05510526938088    0.65253440079921    5.94721476040989
H        -2.24525575433176   -0.06845634889060    5.16353421374758
C        -2.28325464675346    2.00364099143122    5.74797264303050
H        -2.66280906611146    2.35680335543825    4.80324299819477
C        -1.99708712151034    2.87797400619461    6.78453649558476
H        -2.14397171384434    3.94095568655155    6.66532091524633
C        -1.51072040186594    2.36997592661261    7.97613063419210
H        -1.25774170233436    3.03073712240353    8.78937914655980
C        -1.32378889316128    0.99511570837860    8.09895662745356
C        -0.81618254550015    0.36805308609794    9.32956766038535
C        -0.94691419819795    0.95990805351617   10.57565190647106
H        -1.44287155599623    1.91116602265259   10.67971743881854
C        -0.49685730630531    0.28254999843633   11.71335604616952
C         0.06817091319215   -0.97728926369048   11.52712312595418
H         0.45032872526455   -1.54025089539737   12.36368645575555
C         0.17334050321989   -1.50533130000545   10.24687398461965
C         0.73902873901334   -2.83727285490717    9.99921745020353
C         1.67496115585143   -3.02152144993554    8.98200808212867
H         2.05940575496174   -2.16682925057712    8.44271978454235
C         1.70755239060406   -5.37634253207939    9.43380791326998
H         2.07224741915097   -6.36643948400039    9.20523451266933
C         0.78715841477508   -5.19588492658599   10.45385815132296
H         0.43153317998074   -6.04423654594973   11.01870399891398
C         0.30701787123013   -3.93253998144285   10.74298231137729
H        -0.43735942288814   -3.79589175757983   11.51323372306405
C         2.15861114695997   -4.28805981615777    8.70537182758599
H         2.87950180326065   -4.42084803592423    7.91292683820825
C        -0.61220435637752    0.86694494063895   13.04676065567051
C        -0.41900759363374    2.23438938854297   13.25375161000488
H        -0.18054126275674    2.87195444705087   12.41414185502967
C        -0.47886064347750    2.77547649728641   14.51789126579258
H        -0.31092345338311    3.83408527206314   14.64168227348605
C        -0.75308365469938    1.97706447574985   15.63538229094885
C        -0.98154753383852    0.61220400118348   15.41241547799709
H        -1.21566001887092   -0.02498445385502   16.25335783120784
C        -0.90113097373956    0.06549877115205   14.15300333870237
H        -1.09289713100105   -0.98825745120491   14.01368835030731
C        -0.79730781692984    2.47576174327986   16.98877248228922
H        -1.10395084393233    1.74384108247842   17.72385654601050
C        -0.46124226741621    3.71389637899538   17.39651133301518
H        -0.13228182512077    4.43999529231872   16.66375079709161
C        -0.45549000003451    4.19695562394096   18.75340716526672
C         0.00978041623260    5.48985036155629   19.02161892998972
H         0.33519212505090    6.11206662073551   18.19894146143583
C         0.06605360879469    5.99650913028653   20.29733277147943
H         0.42365813172917    7.00469524377098   20.42755647278601
C        -0.34004653974065    5.23345720115050   21.40616374572292
C        -0.82153418354127    3.93999542540045   21.13478171019917
H        -1.14761488408972    3.29981304285801   21.93795907686357
C        -0.87773423093985    3.44432117468594   19.85514821030986
H        -1.25485520707172    2.44355917700903   19.70978159273108
C        -0.83993533012500    5.01712791643215   23.80589089986089
H        -1.12443817369197    5.75607949105653   24.56057131241200
H        -1.75494499866535    4.50560743421091   23.49689237877290
C         0.13647571717743    4.01216626903735   24.43172469914528
H         1.03375214010896    4.54260085115259   24.75778338356461
H         0.44191612347819    3.28718036777913   23.67553909686168
C        -0.49233523197946    3.29139860765720   25.61653050651555
H        -0.78918760005535    4.00279016610327   26.38424255962641
H         0.21343617068439    2.58980580028166   26.05378101239374
H        -1.37551836745714    2.73863427244652   25.30366254037613
C         0.39946178363852    6.96487991968380   22.98898662361664
H         1.25389185605223    7.09915079379675   22.32075761749284
H         0.79528696189189    6.89388921408840   24.00630275506101
C        -0.53214383272219    8.18064870582703   22.89853041536173
H        -0.95025708620328    8.24076776858713   21.89238644746631
H        -1.36500599836250    8.04375565930370   23.59147548639824
C         0.20582584777612    9.47028164910629   23.23159135102539
H         0.61488856383747    9.42847543306721   24.23885261668497
H        -0.46740273097144   10.32144744314063   23.17000002101538
H         1.02691778997104    9.63173627109177   22.53644241386148

