74
CSD_code = BOMMUN | q = 0 | S = 0 | Stoichiometry = C26H32BClCoF2N7O4 | MND = 6
Co       20.43737698622457    6.89088061287920   10.19830678404428
Cl       21.13837728037050    6.89704919982667   12.25973456874316
C        21.20460595392731    4.33435276917265   10.17493981524766
C        22.03891174075604    3.10325218439344   10.04337657579878
H        23.03161110200196    3.38709672924592    9.70191371315176
H        21.59598108724507    2.41082089338146    9.32851312391149
H        22.11906423290740    2.60099104837272   11.00548439341983
C        19.83983514403938    4.32499008148017   10.62984576522304
C        19.10415333478400    3.08216421038636   11.00940409522672
H        18.07734889099705    3.34244609351449   11.25629905533834
H        19.57297812097150    2.62058980746088   11.87670033552348
H        19.11164102654460    2.36368574809382   10.19102204540483
C        20.64873313041839    6.86895998659104    7.32152018253166
H        21.70518116918727    6.82576843913169    7.54806079834051
C        20.22204701709400    6.91213697948418    6.00627410144122
H        20.94874205524879    6.92088771411219    5.20979875590584
C        18.86478693748502    6.94082099985733    5.73476662794736
H        18.49380538605049    6.97582469891602    4.72166573881252
C        17.97680701826239    6.91155394057070    6.80574493362640
C        18.49328916257912    6.87099848714316    8.09273774764410
H        17.81052045795616    6.82909298293406    8.93102185794611
C        16.51895499192763    6.92186258141982    6.57883408070433
C        15.83172215546374    5.71691754942119    6.46485995947286
C        16.26127579794166    4.36825922310167    6.64154247514277
C        17.60886680326988    3.88031865831841    7.03877622830383
H        17.61218573984815    2.79305152195358    7.04611311170768
H        17.86457771041045    4.23324923216601    8.03767830220518
H        18.37879770824506    4.22698160534098    6.35059507020155
C        15.15041874099676    3.58252315319642    6.41405027873100
H        15.10176243086844    2.51231585819574    6.46440768489916
C        14.07257033166334    4.42727008100905    6.10488652935860
C        12.68128063970326    4.05456041690781    5.77622438758537
H        12.38777182102089    4.52035837994986    4.83664029197079
H        12.00812832577638    4.43788208283575    6.54250038393111
H        12.57828188838177    2.97573987541786    5.70488017865146
N        21.62993430394102    5.51569634941038    9.85246908023307
N        19.29467023890479    5.50100110075152   10.63994880810970
N        19.79999483710546    6.85673089607658    8.35088111519940
N        14.48680527656656    5.69631037475773    6.14654193506235
O        22.78211066696124    5.75267672606129    9.32783129821554
O        18.05418342240545    5.72331407141868   10.90984727848729
F        13.22856058893749    6.94300421974022    4.52853429737081
F        12.51569492851549    6.95960863598419    6.67192679479295
B        13.62930688014748    6.94550768918523    5.85589022575094
H        17.84497706126497    7.21592307124953   11.12643459945361
H        23.05354515699126    7.23997346207795    9.36996107446481
C        21.18081840942761    9.55230480214979   10.17734005908677
C        21.97841001745710   10.81097365781774   10.11415408096151
H        22.99670717038262   10.57767663233926    9.81431839158742
H        21.54276356770442   11.50473015075481    9.39654632480174
H        21.99324017864868   11.29186714533906   11.09012033622112
C        19.80245172814322    9.54587880938648   10.63490002287878
C        19.10925958850441   10.79934473563826   11.05056415302665
H        18.06258824145577   10.58572935666671   11.25159982794779
H        19.56773600415342   11.18972802032494   11.95791390644025
H        19.18663776774652   11.55787606329032   10.27420698219468
N        21.63981549252355    8.39205849813280    9.85878205914589
N        19.25880003867028    8.37898020302369   10.66430952926111
O        22.90757208908039    8.27371150892017    9.42009991590831
O        17.98094665615229    8.24820957038819   11.07508446965442
C        15.85290312981394    8.13922695049448    6.45158938257247
C        16.30636381130098    9.47950139860643    6.61982565838407
C        17.66475444276795    9.94457868727783    7.01094514497343
H        17.67306273005117   11.03056904082989    7.06498802793190
H        17.94296868831951    9.54557301910696    7.98623770624500
H        18.41700668726904    9.62642209550543    6.28980531125682
C        15.20994394920818   10.28496482130156    6.38732050820339
H        15.18131414621857   11.35626686275175    6.43060756855693
C        14.11734248916874    9.45833405268074    6.08370872412473
C        12.73289197128093    9.85303642466773    5.75160050152634
H        12.43778076453623    9.39966495649774    4.80640706598493
H        12.05021640814452    9.47260705967085    6.51074431215166
H        12.64502159360795   10.93369307245217    5.68845029907825
N        14.50910655595242    8.18209198106727    6.13434324465376

