74
CSD_code = BOMRIE | q = 0 | S = 0 | Stoichiometry = C32H36IrN2O2P | MND = 8
Ir        0.45486450170768    2.42783171560906   12.19335144612335
P         1.55979886650367    1.39279804105533   10.46039827290870
N        -0.84341859117253    0.80505441504708   12.16425740327568
N        -1.12405470284902    2.49941136302743   10.88462865402163
O        -2.74943855293446    0.78548294748140   10.85136778759014
O        -0.74189563713744    4.33963362574006    9.68574898880901
C        -1.71472512462924    1.28095816303106   11.25909930056937
C        -1.06579020685257   -0.43722323020972   12.85162391763309
H        -1.97902344491739   -0.88579285451359   12.45324510791867
H        -1.19213409193916   -0.27895888228621   13.92740376944638
H        -0.22945589327766   -1.12756393416171   12.69938110297458
C        -1.46469174930436    3.37748199799568    9.93985207143800
C        -2.76768674765417    3.14121697043385    9.20978659298429
H        -2.89959447781613    3.91181882804030    8.45452057107948
H        -3.59255736410853    3.16016679453072    9.91771365605596
H        -2.75108757612626    2.15464747642213    8.75355326086715
C         0.11569288091877    3.16271976911393   14.29372441752257
C         1.47639446120648    2.72082286063529   14.16462264124188
C         2.11401395321331    3.56142955301346   13.19374903154851
C         1.14788108984556    4.49995200649561   12.71232866129873
C        -0.08145670840228    4.25168437103756   13.40140568152436
C        -0.86292067294896    2.68751689761244   15.31920708494352
H        -0.86560224279549    3.36976716468695   16.17181847169694
H        -0.60224663082137    1.69502070901812   15.67884428780353
H        -1.87149454864883    2.65177270479379   14.91186170866689
C         2.17396153004682    1.79523108767099   15.11587494330492
H         2.36367196049125    2.31267636187779   16.05877704651783
H         3.13016991189929    1.46723364002768   14.71459237829515
H         1.56843263894592    0.91694422629062   15.33397818306605
C         3.58536160218655    3.58574896724911   12.91188405649112
H         4.09856059481563    4.13780300108582   13.70160691463696
H         3.79594983653948    4.07162004598561   11.96243061955023
H         4.00057363455580    2.57979210232949   12.87505223701430
C         1.38635374500558    5.69199770777257   11.84308468269740
H         1.28410362597608    6.60420247123148   12.43336060398756
H         0.65284200157961    5.72314193630531   11.03886221328188
H         2.38095304174891    5.67107618626066   11.40572340598583
C        -1.30507892310170    5.09803450799717   13.28312469665529
H        -1.20026503450012    5.99192515889753   13.90175388773531
H        -2.19115267793627    4.55776443271795   13.60842413897009
H        -1.44846112977752    5.41341968523623   12.25188814089289
C         0.53826900991597    0.85798566996781    9.04785887536508
C         0.40818004364066    1.59774604465663    7.87893366158636
H         0.97679453190680    2.50436122321536    7.74094792371446
C        -0.46022852917859    1.17462024097737    6.88747382023500
H        -0.56108749706227    1.75727503414674    5.98353709216835
C        -1.20716277785545    0.02128220432386    7.05669321662216
H        -1.89576339130661   -0.29473514339752    6.28703250854436
C        -1.07443107431578   -0.72375686108075    8.21750431096818
H        -1.65955240391825   -1.61987560341327    8.35692936062626
C        -0.20620927140074   -0.30962713762782    9.20849593111766
H        -0.10584889424719   -0.88491779950660   10.11719405836920
C         2.44267297508184   -0.15850040041404   10.83021461212506
C         2.94757859932150   -0.95380539134851    9.80475140428777
H         2.81161656930824   -0.64899417652444    8.77607553031797
C         3.61254525997643   -2.12801768271083   10.10546219632098
H         4.00301975014442   -2.74408526620394    9.30880043369932
C         3.77574740471368   -2.51799730246170   11.42617303134517
H         4.29279790802002   -3.43780946446284   11.65608807881731
C         3.27014661158271   -1.73261348634309   12.44865479883987
H         3.39102225516122   -2.04071019840870   13.47700544622076
C         2.60481418816367   -0.55609508099084   12.15023782038751
H         2.18834734791217    0.06352245171729   12.93107835538856
C         2.83436328778195    2.45428260958504    9.71395692718096
C         2.42704228799058    3.72038486066129    9.29427380006383
H         1.39250479312753    4.01412962715866    9.41968833626835
C         3.34522861470077    4.59404975972992    8.74097515075261
H         3.02357349017141    5.57034009972368    8.40942099422388
C         4.67575147184315    4.22273361348055    8.62272490352996
H         5.39396162870842    4.90793404358698    8.19669861312950
C         5.08667744563715    2.97568065368011    9.06307900255838
H         6.12556100319052    2.68966878243891    8.98419774746635
C         4.17179513219243    2.09114403283194    9.60887066414077
H         4.50182508154350    1.12213905046282    9.95445935458377

