37
CSD_code = BOMSON | q = 0 | S = 0 | Stoichiometry = C8H14N8NiO6 | MND = 6
Ni        0.00008807343947   -0.00013029535948    0.00002813113457
N        -0.30376604224908    0.20075917761502   -1.90487324000086
C         0.51602115929037    0.07301954657857   -2.94600860041839
N         1.83053832527150   -0.21249861988185   -2.88406315981749
H         2.26990426864506   -0.58717158627272   -3.70880387800318
H         2.08080596669521   -0.65832520014550   -2.00148846670991
N        -0.17694536351894    0.36512031471986   -4.06415990588809
H         0.12636769284131    0.38536243375875   -5.02324341356515
N        -1.46059848097939    0.67437354374679   -3.74242837012265
C        -1.50992844277313    0.55707450886955   -2.44454332868482
C        -2.71847637918243    0.75212520246646   -1.62389189503943
H        -3.05836142532615   -0.22580593327725   -1.26928445922009
H        -3.50511614217304    1.22827920065902   -2.20565553505219
C        -2.42317689733936    1.57532657352309   -0.34611991022526
O        -1.38752821139742    1.25100571879251    0.33251593731364
O        -3.18957107849287    2.45291553404582   -0.00030071467286
O        -1.46576606242803   -1.98425486004888   -0.06593488133454
H        -0.75339954016641   -2.52722374537597   -0.42434796509390
H        -1.56379857329193   -2.22241381161229    0.86050106563524
N         0.30421749254228   -0.20125485873408    1.90481459500554
C        -0.51564875940989   -0.07444631854198    2.94597358189154
N        -1.83051118870718    0.20972975029740    2.88378676691415
H        -2.27020206159670    0.58451038802414    3.70831812564928
H        -2.08067335410806    0.65554516513470    2.00113232493456
N         0.17756457776123   -0.36622218956720    4.06403942181362
H        -0.12565335706577   -0.38684784268298    5.02314647899190
N         1.46145999887745   -0.67433858495572    3.74220631932757
C         1.51066431426419   -0.55675034271736    2.44433439100956
C         2.71921348363939   -0.75095737650011    1.62351224133011
H         3.05857888115509    0.22718986443412    1.26900126268333
H         3.50620973816944   -1.22680610382390    2.20504236121607
C         2.42418708847283   -1.57407590749604    0.34561496612701
O         1.38747803972385   -1.25123073625132   -0.33209046594403
O         3.19183452478057   -2.45015431766046   -0.00128728523442
O         1.46349966422910    1.98576407326558    0.06680635464203
H         0.75055910322356    2.52691126453895    0.42712856282771
H         1.55992896718433    2.22589637043411   -0.85937741342066

