97
CSD_code = BOMTAB | q = 0 | S = 0 | Stoichiometry = C40H53ClP2Ru | MND = 8
Ru       -1.50512917383231    5.16103576680440    3.64863073313796
Cl       -2.22991999772062    5.42733048780077    1.37250150556613
P         0.32464398963024    6.34250738731714    2.95758471092560
H         0.68092071916795    6.24558784169871    1.60823752221413
P        -0.59071118245809    3.13776864714751    3.10482465306998
C        -3.16210287229260    6.45528339231792    4.49434539030640
C        -3.65149921516642    5.10854203854787    4.36490026162776
C        -2.88349785229893    4.27110719719318    5.21264728218106
C        -1.89212503051748    5.08928145171457    5.86828297430676
C        -2.10771401026362    6.44430148347618    5.45003947398213
C        -3.91323007862123    7.64643642838488    3.97994412886092
H        -4.17534520353308    7.51708672217271    2.93032351872555
H        -3.33870726826539    8.56398333656714    4.08424749054192
H        -4.84197486757669    7.75871118522487    4.54586099829285
C        -4.92837390870726    4.76256483979429    3.66045949683872
H        -5.75089360368270    5.32087097422349    4.11354350505461
H        -5.15064717941197    3.70034217082289    3.74014424579132
H        -4.88234297012502    5.03822053177898    2.60578445824702
C        -3.23206590034314    2.85974718494939    5.58412741479872
H        -4.10132220648454    2.86835357970503    6.24640165521565
H        -2.41126280981836    2.37526707850777    6.10798121169668
H        -3.47765940367204    2.25933144810892    4.70847154286373
C        -1.13618467079617    4.70785618532066    7.10643431833363
H        -0.22158018220880    5.28907486021523    7.20916641346761
H        -0.87348121726338    3.65258908407706    7.10672904316931
H        -1.75854936284737    4.90402932951082    7.98387164302974
C        -1.53407887735614    7.63943180776794    6.14969535379147
H        -1.74294595327423    8.55698369316976    5.60439036454813
H        -0.45775524428181    7.55339250344610    6.29083535096395
H        -1.99472129862164    7.72081552803652    7.13741640939145
C         0.17239130093814    8.19521255371578    2.96310968130658
H        -0.10272573689531    8.49462117870421    3.98154637027620
C        -0.98410343730288    8.51367872083942    2.01098419519976
H        -1.86724302547093    7.94091996634192    2.29591154685380
H        -0.70831020891807    8.19151759501043    1.00289683994225
C        -1.29534462646889   10.00435124418671    1.99971679598985
H        -2.12298390950203   10.20281178607312    1.31611990387498
H        -1.60135595710325   10.32753594875598    2.99884512275588
C        -0.06088737709031   10.79041076894402    1.57198039189737
H         0.20761691681884   10.51191155173037    0.55064923887601
H        -0.27088246529505   11.86227035313417    1.58362374967981
C         1.10400242184304   10.47969213387074    2.50501133966942
H         0.85537666263432   10.81424281549176    3.51590698545402
H         1.99508900404560   11.02486108331253    2.18461262827505
C         1.40927281133250    8.98142242187173    2.53330905073302
H         1.71857488008028    8.65247816061023    1.53818155737239
H         2.23436918576241    8.81352138694370    3.22633561046832
C         1.99484342428843    5.87019961751781    3.64228775929811
H         1.90353263655070    4.77731229354578    3.72910150209497
C         2.20840498156146    6.42399296239380    5.04779278838236
H         1.33128878020478    6.19005300379581    5.65861381415002
H         2.31344864698969    7.51047342694166    5.01388726593772
C         3.46174048560076    5.81422873877187    5.67041541887408
H         3.63266272244619    6.24171668526591    6.66141896313901
H         3.32214667540957    4.73692760148117    5.78946908543440
C         4.67434169136517    6.06464099322493    4.77811416194873
H         4.85425261151929    7.13997349221594    4.70461810068425
H         5.56118883729443    5.60835806392435    5.22290802155353
C         4.44058306065769    5.49416968353503    3.38145613632563
H         4.30005032941965    4.41297139388071    3.44757678721490
H         5.31377727287784    5.68059059582153    2.75274209001634
C         3.20347436602907    6.12617602914096    2.74584087964282
H         3.02561551070101    5.68789959819305    1.76112306164305
H         3.38241922667797    7.19203716428065    2.61640627735936
C        -1.59259925280722    1.98799703321798    2.09357551668175
C        -2.93935204788120    2.24908606289610    1.88788919419884
H        -3.36530451663280    3.15242846246868    2.29620655189464
C        -3.71347591167800    1.38497749845260    1.13336841440152
H        -4.76002997351105    1.59996792487599    0.97257668198995
C        -3.14346197234139    0.25312087931839    0.57779260158957
H        -3.74407117750904   -0.42195240464472   -0.01449524984507
C        -1.79589961210794   -0.00996436138192    0.77278619293309
H        -1.34800574595493   -0.88957983253385    0.33273723121301
C        -1.02046856164183    0.85139276047569    1.52477647436021
H         0.03143913972324    0.64644009928717    1.67273924709905
C         0.91647183794843    3.07612320047163    2.06603167528798
C         0.79497388666323    3.68041452016513    0.81571921377496
H        -0.14994614572730    4.13634012417221    0.54371736931766
C         1.86155012734253    3.68214361221942   -0.06334860746372
H         1.76041160338369    4.14972021903199   -1.03199204511364
C         3.05890510966105    3.08333319274914    0.29723121327075
H         3.89443715434667    3.08524344381983   -0.38751489934747
C         3.18181499281262    2.47739056652683    1.53589084284678
H         4.11186840221020    2.00232937196357    1.81486226289578
C         2.11620228751160    2.46963157550258    2.42016669278930
H         2.22030443709722    1.98625293992966    3.38213581809802
C        -0.11007634612406    2.05843949859063    4.50106055731364
C        -0.60060885811148    0.77320904134865    4.70057467967158
H        -1.31179307869056    0.34955332916321    4.00669895129314
C        -0.18487280189671    0.03122178505629    5.79334510533697
H        -0.57418913259472   -0.96600288533911    5.93997014160962
C         0.72335084829817    0.55836493686853    6.69575833599554
H         1.04841957024974   -0.02715259436659    7.54316134301857
C         1.20458601656899    1.84526798358753    6.51355329863886
H         1.90274139524263    2.26850741918619    7.22197220795400
C         0.78000333523760    2.59137814767639    5.43028059018455
H         1.12290412454937    3.60836126996203    5.29693620293420

