43
CSD_code = BOMXOT | q = 0 | S = 0 | Stoichiometry = C19H19ClINORu | MND = 9
I         4.30504624006622    3.04112768100999   12.41412612754315
Ru        1.85956943766041    2.41883413092970   11.56746794734791
Cl       -0.44495873680965    6.96708867955631   16.16950245689649
O         1.28429350375921    2.04740655476479   13.53872260421845
N         1.29785954709636    4.25667647634375   12.15751008496269
C         1.34562851983638    5.35460005157589   11.42949607909657
H         1.71745177769481    5.26240837668952   10.41627181155676
C         0.96403323830163    6.60346847345877   11.93490954581274
H         1.02889601424368    7.46671812324125   11.29207531851484
C         0.52661571476472    6.71481892889911   13.22785011768859
H         0.23063440970294    7.66637729018681   13.64046502531296
C         0.47681195013392    5.56135965952018   14.03958623539106
C         0.07309632895579    5.51151651678232   15.38436860931193
C         0.09176158107276    4.32579685741098   16.08818970968859
H        -0.21610791975232    4.32418179908194   17.12267320439771
C         0.50005617710268    3.13457424187152   15.50459841704494
H         0.51582514365460    2.22189363482776   16.07776091427207
C         0.90705430020548    3.10592310176031   14.16853842769992
C         0.88559600347688    4.34005138204231   13.44526598668414
C         3.83243202536635    3.80583911489931    8.38980217140742
H         4.74358694540373    4.02759424857659    7.84084471651269
H         3.91995593346440    4.25161069903173    9.37873664289854
H         3.00101633632906    4.26471725153058    7.85850529376931
C         3.66220237449673    2.29135481182640    8.50454813343360
H         4.58127890504821    1.88658983750251    8.94291200631545
C         3.45980761035869    1.65642189406558    7.12358770601626
H         2.55355486290346    2.03770820019189    6.65612059215653
H         3.37724701557827    0.57427799741908    7.20383400379761
H         4.30447764201590    1.89116178992293    6.48136693299416
C         2.50691152396117    1.88921673565645    9.39237055003011
C         1.26327111387528    2.53587174477927    9.35140942592727
H         1.10021522697951    3.35920167485506    8.66478340425676
C         0.17331934096202    2.07189849362430   10.13835254375137
H        -0.79192904755730    2.56099367185868   10.04764843602894
C         0.30072775455516    0.93117985894087   10.94993578127927
C        -0.84636785764218    0.39709128908592   11.74935062581067
H        -0.59326692993354    0.41709822712305   12.81114422304094
H        -1.05074583796652   -0.63765845437312   11.47345751978847
H        -1.74614547250316    0.98976357708652   11.59562596278684
C         1.55547858223813    0.25552543849081   10.97517055292975
H         1.65604279897669   -0.65554928531828   11.55553152212335
C         2.63252393309884    0.73614978952651   10.23076885103945
H         3.57554198882605    0.19621943374238   10.23661377846171

