61
CSD_code = BONCIR | q = 0 | S = 0 | Stoichiometry = C28H26N2NiO2P2 | MND = 4
Ni        5.90652736767973    3.78456790869096    4.57370553122906
P         6.17031821132210    2.40640047738681    2.95968326265321
O         6.03121776167397    5.10359053635696    3.16948296462538
N         6.30060260415631    3.40936859292771    1.65343643262909
C         6.37283219308682    5.69393554061528    0.89412122177694
H         5.48040674776123    6.31544094385203    0.86215808007058
H         6.51758099505243    5.19361464286514   -0.05759494598173
H         7.22296359539971    6.33649629888529    1.11251696705165
C         6.22900944080961    4.67874667173557    1.99683556555516
C         8.63040077599859    2.08687982790427    4.12303163925587
H         8.28257721936397    2.92095175465414    4.73829837693862
C         9.88149267113375    1.53417760588767    4.31739167211135
H        10.52993963543529    1.91575940653122    5.09213164297191
C        10.29709240548578    0.48286407441861    3.51542578439443
H        11.27037800339802    0.04065170215795    3.66982364919349
C         9.47284106760275    0.00367278312162    2.50970725506894
H         9.80932776836557   -0.80471217550373    1.87673635033833
C         8.21940430273716    0.55621151969913    2.31168221518919
H         7.57363449384580    0.19476188284411    1.52438452338778
C         7.78931417351302    1.58894618840440    3.13330118415929
C         3.92137070407133    1.50040066964367    1.64926081954947
H         3.86666342448283    2.52032509495205    1.29540018572677
C         4.99990057521699    1.12232737619432    2.44099514094046
C         5.09261350572554   -0.18654365093451    2.89829677449526
H         5.93944782728860   -0.47983951523359    3.50153970394346
C         4.11779678820964   -1.10696489009247    2.56150338725457
H         4.19422920977950   -2.12555937423728    2.91387573474728
C         3.04267824795826   -0.72566886442072    1.77458769042387
H         2.28015675929065   -1.44636817070284    1.51821551951577
C         2.94907276717521    0.57717232121460    1.31282898770914
H         2.11456443124421    0.87208023358579    0.69338995839183
P         5.64301876119168    2.40640120636740    6.18776888943281
O         5.78237832782622    5.10357825438815    5.97798354887966
N         5.51276384397246    3.40937570056290    7.49401190353623
C         5.44065370329880    5.69395904426170    8.25332772874918
H         6.33265222613867    6.31611793187029    8.28463844737711
H         5.29678255622219    5.19365678147844    9.20520148285240
H         4.58989691360905    6.33585603360439    8.03532956598050
C         5.58451278383518    4.67875110376008    7.15062472752239
C         3.18294138119750    2.08695935313758    5.02438236392119
H         3.53072106677810    2.92115001472392    4.40922822090700
C         1.93187469877676    1.53422112021499    4.82992818606120
H         1.28344233956127    1.91583316116484    4.05518223241895
C         1.51628655267624    0.48282341973159    5.63178949870470
H         0.54301416397158    0.04058672093340    5.47733987482847
C         2.34050731335934    0.00359063296713    6.63751880282748
H         2.00402610931098   -0.80485161237266    7.27042503819519
C         3.59393061313491    0.55614589332190    6.83561539760920
H         4.23967915054333    0.19465875044931    7.62291867853293
C         4.02402089620979    1.58895830494073    6.01409565587302
C         7.89192859493526    1.50040458530645    7.49824200564647
H         7.94662471187868    2.52033401757571    7.85208774895940
C         6.81341803931705    1.12231683420136    6.70648743320246
C         6.72072178315828   -0.18656096647119    6.24920159281534
H         5.87391120924877   -0.47986633270888    5.64593168101767
C         7.69553140813590   -1.10697543671680    6.58603911008252
H         7.61910592164785   -2.12558035877291    6.23369470464426
C         8.77062855405915   -0.72566388152486    7.37297643399786
H         9.53313304945584   -1.44636297430345    7.62940013993931
C         8.86422369683349    0.57718643943461    7.83470971101514
H         9.69871395546228    0.87210884506603    8.45416591917284

