73
CSD_code = BONCAJ | q = 0 | S = 0 | Stoichiometry = C28H40NiO2P2 | MND = 4
Ni        1.60018273381101    9.91564408804601   -0.00018519133840
P         0.92483397945762    8.05935174001708   -0.92676779075502
O         2.76651430960795    8.85586863915573    0.97726041804778
C         3.67952915798178    6.83735774802710    1.76623589717466
C         2.76103983520105    7.55762041742926    0.85534953129085
C         1.95523045089702    6.91235521079860   -0.03516534496926
H         1.88808402752954    5.84276489362541   -0.13791364020762
C         1.02802532913828    7.62149242915010   -2.73264289532559
H         0.28959752891245    8.24220891683527   -3.25126514462785
C        -0.82400567894405    7.67617896157289   -0.40885320787223
H        -0.99643753160570    6.59442170808932   -0.46989271885635
C         2.42390182049326    8.02373263876294   -3.20066444938283
H         3.17983788466235    7.44273491328867   -2.67287461858545
H         2.59445949723227    9.08007581460060   -2.98720506088462
H         2.54254015365716    7.85916818227537   -4.27053410728375
C         0.74159218350679    6.14999116834461   -3.00114381649276
H         0.80849414115260    5.94551970312904   -4.06916120786841
H        -0.25486166274374    5.87353236481565   -2.66377322261242
H         1.46810474689118    5.52162307182674   -2.49119932084982
C        -0.91443452472975    8.13067535374092    1.04709587054059
H        -0.62226555999741    9.18803223726015    1.11059922946297
H        -0.23778433197850    7.54883961330702    1.67315428556116
H        -1.92686910694364    8.02533057678240    1.43425952930313
C        -1.82186127514581    8.43411155736342   -1.27643205179388
H        -2.82470331932387    8.35391967371621   -0.85854367087329
H        -1.84573891572660    8.04086363763791   -2.29046153376634
H        -1.54350629216857    9.48631839959102   -1.31314275907773
C         4.18758671017827    5.57720217292897    1.46221482994165
H         3.92945246661389    5.10327602907636    0.52716167619613
C         5.03939354828873    4.93738846357615    2.34315604798439
H         5.43004426786345    3.96025579647037    2.09710634474685
C         5.39762750624295    5.54422325287104    3.53595147116965
H         6.06298424103344    5.03968875865330    4.22140935197145
C         4.90483655870749    6.80189748677274    3.84199854644653
H         5.18584952826973    7.28174869147890    4.76860630365606
C         4.05548323388833    7.44492372399880    2.96255219219437
H         3.66436589387399    8.42585344989745    3.18758854922774
P         2.27544940258908   11.77187387211350    0.92667777831839
O         0.43373702128532   10.97561193072372   -0.97728488844307
C        -0.47915599153025   12.99415274469325   -1.76625713768493
C         0.43919945911558   12.27384785210725   -0.85526747280521
C         1.24508437867216   12.91903293397668    0.03522582163045
H         1.31226970086370   13.98862593097662    0.13800920288912
C         2.17225912809827   12.20994398531510    2.73252168014137
H         2.91067166177944   11.58924390899653    3.25117595613883
C         4.02427755656586   12.15527207414348    0.40887770661973
H         4.19669532018880   13.23704403375893    0.46991574318600
C         0.77639986658654   11.80773770571236    3.20063112513038
H         0.02044590896194   12.38871938657015    2.67284813828474
H         0.60586328457300   10.75139176354107    2.98718262208210
H         0.65775446241146   11.97228750375138    4.27050568457705
C         2.45864868990760   13.68144016460247    3.00115778282229
H         2.39176651391171   13.88595784940839    4.06917610308893
H         3.45509763413529   13.95789436005966    2.66377802884841
H         1.73214202752997   14.30980580480108    2.49120222223772
C         4.11463861107887   11.70075218670990   -1.04706561689967
H         3.82248935563322   10.64339280502647   -1.11057159992410
H         3.43801383129329   12.28258288206469   -1.67316101063794
H         5.12708368814204   11.80609993244570   -1.43418203157762
C         5.02211857683436   11.39733122851790    1.27646782287809
H         6.02494879480937   11.47754697725323    0.85856064741445
H         5.04600106523992   11.79056457930355    2.29050579809811
H         4.74378192217196   10.34511750155733    1.31315527526027
C        -0.98722857844403   14.25429907391724   -1.46224437886267
H        -0.72921256589492   14.72816389372765   -0.52713437827478
C        -1.83913281992198   14.89405198509768   -2.34313895792818
H        -2.22976200020655   15.87119899055264   -2.09711030819543
C        -2.19742248607583   14.28717389442598   -3.53589986344656
H        -2.86264318646933   14.79176515890631   -4.22144288853962
C        -1.70458809413971   13.02952141913419   -3.84196037803360
H        -1.98551108693213   12.54971356446050   -4.76861483024469
C        -0.85514549024711   12.38654940774681   -2.96255325142517
H        -0.46405909830070   11.40559922898953   -3.18756446821620

