65
CSD_code = BONFEP | q = 0 | S = 0 | Stoichiometry = C22H30BIMoN8O2 | MND = 6
I         4.02472487052837    3.83684672436067    1.08222344864858
Mo        3.45852919064545    5.61419811999809   -0.96469101239624
O         3.86458442637990    7.99536208229960    0.68328974033836
O         9.87750069239106    8.50733676554003   -0.99745953357352
N         3.70201167317710    7.01459375128608    0.02181074182936
N         5.17603597054631    5.69899402801699   -1.86559375044032
N         1.33847181603552    5.49458919248567   -0.47567541124608
N         0.46781338715808    5.04841123897681   -1.40664838507000
N         3.13376118945199    3.87596662710446   -2.26768497731611
N         1.96684619821116    3.76697632994861   -2.93710859794747
N         2.60499091809739    6.69408833047643   -2.60204142188279
N         1.56989405924016    6.18768332603464   -3.29736197852278
C         6.34468449928939    6.38494964303761   -1.62670498301639
C         6.70371841264204    6.75759255865522   -0.32773821674893
C         7.86453173356123    7.46285562900135   -0.08204582375125
C         8.71398761504776    7.81043968699019   -1.12885711425852
C         8.38527573012789    7.41175720664978   -2.42615072082431
C         7.23018702646883    6.70611712296415   -2.66796166214248
C        10.25906997908567    8.93599769142529    0.28710454712036
C         1.25392540514845    6.13031820046638    1.94178836123905
C         0.66166584360831    5.65459449656675    0.66634577932377
C        -0.67061748985344    5.29129747641114    0.45926347069754
C        -0.75788993692190    4.91547563416605   -0.86828410049891
C        -1.95023408974644    4.44006236290498   -1.61570521511867
C         5.21782359345534    2.48820764193590   -2.02078719891511
C         3.86051492941739    2.79347053827626   -2.55293306602579
C         3.13813905050440    1.97159412786758   -3.42403060617747
C         1.93994413975397    2.62014780734218   -3.64441012783505
C         0.79791391453909    2.18450359897996   -4.48860972909351
C         4.07273906021361    8.70456449924443   -2.69157422329512
C         2.95824384983224    7.84822053710029   -3.17123580634232
C         2.12376239554568    8.08367289133156   -4.26488918012126
C         1.25100136007920    7.01021852961130   -4.31173521522593
C         0.14847831013533    6.75827754342068   -5.27454204083960
B         0.90627314701916    4.86833103361484   -2.86410079880055
H        -0.01323095087307    4.61584934593141   -3.55501070451077
H         5.24440258646755    5.26795280926424   -2.79346537068760
H         6.07450098886435    6.46587020575590    0.50200932295958
H         8.10075048562485    7.72755719207335    0.93584453057165
H         9.05908207233170    7.66665504275606   -3.22899004758851
H         6.99211911672243    6.40070764390497   -3.68005089207048
H        -1.46008777928600    5.30302594483808    1.18234306320123
H         3.45299183586865    1.03167304384001   -3.82870662586804
H         2.15061624725053    8.92457074405796   -4.92722105073279
H         9.51266010095848    9.60599156193575    0.72539283277541
H        10.42677226861963    8.08905796106769    0.96014100415878
H        11.19398426048074    9.47758648631510    0.15106475348894
H         0.47797051576730    6.58475294575280    2.55352143827192
H         1.67902349102023    5.29385592428035    2.49847361117676
H         2.04203835266586    6.85881662476552    1.76926995383314
H        -2.79942111147526    4.38331512137525   -0.94042069235538
H        -2.19350292562866    5.11992549673808   -2.43062379165718
H        -1.77047651236197    3.45372624902562   -2.03955377363294
H         5.69589011110446    3.35593919853430   -1.57015822839909
H         5.14536302150285    1.70997416824670   -1.26023351269130
H         5.84729077551130    2.11105111446773   -2.82612407883785
H        -0.10774028765985    2.08801705528029   -3.89246998061188
H         0.60490201408832    2.90324003518335   -5.28348729032780
H         1.02848356312198    1.22086705796068   -4.93472411950035
H         4.08902030225249    8.75248820471131   -1.60561717396467
H         5.03448380207714    8.31333252342373   -3.02468961512017
H         3.95627348230881    9.70972820034496   -3.08933298492733
H        -0.80927414289463    6.71234386090465   -4.75922150535344
H         0.11622451287350    7.56182824735219   -6.00505119546098
H         0.29778693188638    5.81378701542947   -5.79477306791406

