47
CSD_code = BONGEQ | q = 0 | S = 0 | Stoichiometry = C22H19CrNO3S | MND = 8
Cr        8.70070721992475    1.93303691976840    6.10047241493541
S         9.10651576073032    0.13812936171247    4.39168104106051
N         9.62827843322826    1.54882215465954    2.03018813648455
C         9.84133393346778    1.61159113856121    3.42498821109325
C         9.36624138300785    2.86668932908207    4.11015784984135
C         8.01404705316848    3.07661000634138    4.36801566519579
C         7.06480943430765    2.02992102395460    4.57785105519845
C         7.48771419412466    0.72357584874716    4.76494782574201
C         8.26258824966645    1.67048748983540    1.56964734116643
C        10.34246198904829    0.47157793762328    1.37707692260704
C        10.36803349674569    2.28004564670356    6.77795898600845
C         8.18491397148683    3.21194722284671    7.28685187394415
C         8.33189233499608    0.88486060258558    7.55543723862557
C         5.63583096142861    2.36253308648552    4.72117149290528
C         4.87477295447524    1.81686541649209    5.75330533237501
C         3.53582225603781    2.13543977139996    5.87607953941141
C         2.93767465090600    2.99941886918199    4.97286636491772
C         3.68755806488680    3.54937844724422    3.94745150663983
C         5.02828815649676    3.23529538805957    3.82150034378132
C        10.26038244425366    4.03162397309580    4.02013438726864
C        10.15917890282759    5.06135245080177    4.95948547498401
C        10.98437865779849    6.16576911325223    4.88724897757085
C        11.93113950428635    6.26851237736078    3.88054450925851
C        12.04142470215125    5.25543444154020    2.94409389864416
C        11.21585870699416    4.14840738944554    3.00931616398341
O        11.38674463699483    2.59007438801859    7.21583374160538
O         7.88194361986048    3.95573507242108    8.11818312849355
O         8.03583272946868    0.33827794101156    8.52633556916128
H        10.91144692710517    1.47171813040314    3.61132505854811
H         7.64428561922943    4.09614961231136    4.43565098080414
H         6.77719893306972   -0.08218219144969    4.90783658011955
H        10.26244779885788    0.59802143532566    0.29897867263845
H         9.94330212438051   -0.51470664872067    1.64942840672596
H        11.39442523817565    0.51060827835822    1.65669214623531
H         5.34645814150835    1.16777398427966    6.47844251316894
H         2.95800962352197    1.71425468916464    6.68500861349886
H         1.89190214403108    3.24825175167473    5.07210687509139
H         3.22819386960614    4.22659652567513    3.24260237553058
H         5.60619006072013    3.66325488282683    3.01368519217353
H         9.44936661821730    4.97486421895315    5.77079550380435
H        10.89514791861274    6.94654037538421    5.62764503551384
H        12.57969940369068    7.13002704036625    3.82909014383211
H        12.77381062576098    5.32755608007465    2.15311888518998
H        11.29687310880113    3.38058670920260    2.25487383440001
H         7.82310776807428    2.58370476884122    1.96716307953671
H         7.64191268787920    0.81091458977220    1.86180566712824
H         8.26745298598833    1.73855295932400    0.48312544315611

