113
CSD_code = BONGUG | q = 1 | S = 0 | Stoichiometry = C54H52O2P4Re(1+) | MND = 6
Re        3.22207188144386    7.93338521655149    5.47367640682447
O         2.50130331796520    6.39521236507232    5.58376309220161
O         3.91199421284382    9.47602391272550    5.30762562764858
P         5.16066470413296    6.95246046675163    6.68041362392183
C         5.14758768202437    6.88911228996407    8.49492677544750
C         5.55733635811114    8.02567190079855    9.18925937899038
H         5.87699203669522    8.89957801224554    8.63925077938836
C         5.57888401239368    8.02878300020594   10.57076322856516
H         5.90197450665059    8.91231973080236   11.10062853767710
C         5.20033237024859    6.89545224644254   11.27203143702067
H         5.23116400680481    6.89147793808163   12.35076029753937
C         4.78412456199203    5.76607145130664   10.58693425743522
H         4.48923360867539    4.88180008206826   11.13136155563691
C         4.74574333103227    5.76141265040185    9.20425820126168
H         4.40192288697272    4.88069817933660    8.68392527853559
C         6.79415508080203    7.67443936262815    6.33991930966720
C         6.88493993365847    8.87988813729130    5.65523660695550
H         5.97556560374711    9.38224463745401    5.34979771651358
C         8.12478020469806    9.42445578199141    5.37015823344503
H         8.19080262674541   10.35898267990640    4.83394873230455
C         9.27600419786155    8.76879472134182    5.77124486858401
H        10.24436375748387    9.18861922274789    5.54533813517144
C         9.18859505592611    7.57629922276347    6.47422242041906
H        10.08718494746668    7.07382653033453    6.79934091193251
C         7.95340314466764    7.02862950525851    6.76384969535536
H         7.88748001780468    6.10661499125656    7.32396271201018
C         5.35077074642011    5.18607190383745    6.19836825763937
H         6.02282302523169    4.71141867624744    6.91961136512779
H         4.35875060409847    4.73215290222958    6.28793764274272
C         5.88834820061024    4.99073257069185    4.78195492152938
H         6.75844028334439    5.63698061147277    4.63194106427075
H         6.22491836418637    3.95403371847696    4.68401604745535
C         4.83976208736475    5.24753055159326    3.70173112582961
H         3.91328815859631    4.72123685178051    3.95377536096436
H         5.18342396824195    4.87133297516433    2.73212442127555
P         4.35014641681905    7.00534764344561    3.45014749235304
C         5.78910576784057    7.86622102020042    2.76335779606193
C         5.66788163736435    9.25006179020104    2.65689140705619
H         4.75754565272446    9.71899406850095    3.00435436465048
C         6.69978165316262   10.00351922944530    2.13240465689639
H         6.59569386640249   11.07474999100016    2.04562659314684
C         7.99495585142494    8.00592892831004    1.83022722245202
H         8.90392419830970    7.52069145054575    1.50738448630734
C         7.86852114971411    9.38089743892913    1.72262325862783
H         8.68059755870565    9.96558786701293    1.31772004373850
C         6.95942524479503    7.24402624714474    2.34357430679769
H         7.06876427427951    6.17159371350089    2.40032736359120
C         3.23805543764029    6.79252440111964    2.03318476697582
C         3.56267353984524    7.18045170967405    0.73922537550661
H         4.50372030412071    7.67194753345291    0.53876858054135
C         2.67280867602020    6.93048877675785   -0.29158143975751
H         2.92894073490420    7.22265325417350   -1.29884798163775
C         1.46259787379979    6.30603148619978   -0.03764739433633
H         0.77520994118494    6.11327598466433   -0.84739270134146
C         1.13182968631677    5.92911400023573    1.25562045435910
H         0.18526275831069    5.44923009239512    1.45637681759254
C         2.01862220832606    6.17033972265792    2.28708543555151
H         1.78380051373158    5.88457318875426    3.30317878452367
P         1.37534512769283    9.10780445971627    4.27854601442053
C         1.86620472901021    9.97038934834762    2.76327643853511
C         1.44324384982048    9.53312686701234    1.51194953326335
H         0.78813241819146    8.67779392057833    1.43282869962246
C         1.85328474673204   10.19899110593553    0.37113474268569
H         1.51265690796735    9.85932949181445   -0.59522662719236
C         2.69387250279645   11.29556653785751    0.46672484311527
H         3.01011450841845   11.81348205250610   -0.42585051556644
C         3.12670770311457   11.72825384949452    1.70979475165457
H         3.78215923421204   12.58300470421433    1.78667935321789
C         2.71804094796473   11.06984143029760    2.85530797428175
H         3.06750162745453   11.39436934279307    3.82502305300470
C        -0.23374455236334    8.35588508268746    3.89325996906353
C        -1.22184918373159    9.06957314655174    3.22242464029566
H        -1.02685979559779   10.07983602611569    2.89076553226104
C        -2.44769192527878    8.47893479138338    2.97599651884488
H        -3.21420387246822    9.03141556484643    2.45361060559633
C        -2.69482889786492    7.18160037499907    3.39826397098442
H        -3.65304517051999    6.72576190834613    3.20055567799913
C        -1.71659273774449    6.47187420030439    4.07547233029386
H        -1.91233697549480    5.46355030544785    4.40877285169636
C        -0.48906775891825    7.05890424764421    4.32501875680143
H         0.28608139923270    6.51994818697317    4.85520133130792
C         0.91626317327427   10.52812170169765    5.37050161458866
H         1.85888080640556   10.86531454901336    5.81867686243887
H         0.51988888704527   11.33508539827064    4.74624528771931
C        -0.08550860451017   10.18773559919545    6.47212079549756
H        -0.11731441219322   11.03085929504152    7.16766495903851
H        -1.08405256146621   10.07865029271230    6.03932978806329
C         0.25033792710606    8.90638152604619    7.23557101007085
H        -0.05722927244381    8.02946047294339    6.65540731333385
H        -0.29166201900196    8.87705970127843    8.18600842238083
P         2.05027613447508    8.64822655294819    7.56973586425066
C         1.91137668079598    7.38642797758475    8.86891538672318
C         2.05473433948239    7.66371469029017   10.22272153101446
H         2.35407742622646    8.64784788028191   10.55151803131356
C         1.82062253271649    6.66707334534739   11.15409262362598
H         1.92269050094201    6.88699583092451   12.20610126789418
C         1.45377354293603    5.39624844632984   10.74420909182435
H         1.26150117297123    4.62787603357153   11.47764708618081
C         1.34488536443441    5.10852104040144    9.39282328083816
H         1.07701482888237    4.11293598315754    9.07144261228030
C         1.57301523884981    6.09947487679306    8.45756734871451
H         1.52072932179886    5.88735238469883    7.39683128295721
C         2.58511992829100   10.17071215544521    8.39851161026502
C         3.81656647060895   10.71948566357971    8.05802712352736
H         4.39781776190914   10.25019934303480    7.27432711828704
C         4.26323320527042   11.87026729596060    8.68256861985566
H         5.21959196996230   12.29380380430506    8.41421759271684
C         3.47964144728786   12.48052263120021    9.64803724968861
H         3.82561865136081   13.37782934376374   10.13813709977792
C         2.24359801357450   11.94672929098913    9.97890628835470
H         1.62912718049361   12.42971866078554   10.72396687167488
C         1.79185350856500   10.79666092781066    9.35774567060244
H         0.82771158863930   10.38597582318360    9.62182513136596

