57
CSD_code = BONKUM | q = 0 | S = 0 | Stoichiometry = C24H25CrNO6 | MND = 9
Cr        1.06342715186963   -1.93188662096902    6.09278561942290
O        -1.94193433835193    1.21272374462898   11.11704734937088
O        -1.13824890323512    1.42786790091992    8.46536229720863
O         4.62129436985958    1.01797119699085    9.79114131760777
O         2.30451687786506   -4.20481536234313    4.62957364779839
O        -1.34723774234052   -3.50505238797279    5.34912352822832
N         4.74187362369405   -0.98926689447579    7.74914058849661
C         0.09749080775677    0.06157715475098    6.45962737348479
C         0.46846560084351    0.03236380343993    5.10408425017452
C         1.78431200278951   -0.23594055003649    4.75151886672740
C         4.16053469775256   -0.80603863474718    5.39548154179052
C         4.71579492707181   -1.70612032509747    6.48923569643583
C         3.44531402549371   -0.46501632178353    8.20893883607332
C         2.80698268357736   -1.30035551467046    9.33860769821563
C         1.18904310849028   -0.72057623281104   11.14754523702359
C         0.03084859600511   -0.11604994989656   11.60222341267864
C        -0.78261445338690    0.59167040997693   10.73119551960349
C        -0.43066742013659    0.67956944675026    9.37035698676253
C         0.69155225423974   -0.02338384143232    8.89853212962963
C         1.52609342015611   -0.68530383799251    9.81084369970051
C         1.04984110485344   -0.10682946244633    7.47755386345093
C         2.40487407631727   -0.38016150316594    7.11037817287868
C         2.74912032958406   -0.46296724084228    5.75814149481897
C        -2.33170442358257    1.13124874859026   12.46515105228199
C        -1.70891726471879    2.65519184137740    8.87239011362393
C         5.52200639619308   -1.73265068562899    8.72242548889318
C         3.70088057456302    0.99875030449573    8.72887376051783
C         4.16461560168732    1.92467892672065    7.60691443939471
C         1.84895462121358   -3.28992152486504    5.17465693597424
C        -0.43554776811273   -2.84998396834897    5.62436405989992
H         5.49776432845850    0.87640541162567    9.41359527270014
H        -0.92640632803521    0.28459229179593    6.71702212937470
H        -0.26870818826451    0.25648334537754    4.34231717307340
H         2.09578027692872   -0.22100729392352    3.71318542809694
H         4.77344650662046    0.09662334281748    5.31802292109048
H         4.19057614410601   -1.32356624834689    4.43458115263298
H         5.74558198427492   -1.98641546632462    6.25321739730731
H         4.11090039101252   -2.63048245023463    6.53986744766336
H         3.48077512293924   -1.36329570578306   10.19084672513498
H         2.62367311092507   -2.31142689895718    8.96102019820744
H         1.82952769329477   -1.23106235392059   11.84980079581740
H        -0.22273455116811   -0.19102554234069   12.64650530453135
H        -3.27057206162310    1.67965703566753   12.52885538346809
H        -1.59586945300479    1.59806172915003   13.12800483612131
H        -2.49821612069862    0.09484693080563   12.77444790617622
H        -1.82819091413872    3.23505445419619    7.95614367721299
H        -2.68317410931443    2.51132715127740    9.34214611611933
H        -1.05194766600176    3.19397562310135    9.55840144853125
H         6.54740642227545   -1.78923443909786    8.35208279521347
H         5.53575171987778   -1.22635463276802    9.68261541564985
H         5.15693509421531   -2.75872798585717    8.86765897674367
H         2.76855093943214    1.37950496136228    9.15780809938295
H         3.39939078966462    2.02907348681333    6.84249418883953
H         4.37842116694370    2.90823071352481    8.01983673839966
H         5.07215484026730    1.52683544215676    7.15711400512600
O         0.96203778361184   -4.15871701864057    8.06132683285069
C         1.02528053939141   -3.24414850259245    7.35066665636550

