35
CSD_code = BONMAV | q = 0 | S = 0 | Stoichiometry = C15H11FeNO6S | MND = 7
Fe        2.76645836883498    0.86478585917572    1.98442308251479
S         3.50422489630028    3.86352252798049    4.92882298170329
O         3.00902559189937    1.24442248149252    6.01706462497509
O         5.61247804464898    1.38745820008000    2.58942960405124
O         3.19521417360663   -1.82625579971986    0.97521435988680
O         2.84474691764398    1.63189387596276   -0.81706876953612
O         3.05791059553454    5.08905280566290    4.33782291073852
O         4.78378432405645    3.35811821165090    4.54289363125870
N         2.32935899826957    2.69481112264317    4.41863900401918
C         2.52198504832616    1.40900144295218    4.91922072691371
C         2.08390742088433    0.34552061881331    4.00874473114996
H         2.18243820519720   -0.64484369657129    4.44353892626883
C         0.98065556305960    0.59313727410730    3.12686235522483
H         0.22436260408635   -0.15620558023854    2.93010666737961
C         0.87290832914290    1.91519529029984    2.65014586520416
H         0.12787075305880    2.21364435453795    1.92481094675189
C         1.84256552674078    2.81492359535881    3.11424819163787
H         1.89301531561908    3.83639791540636    2.75849170393304
C         4.48905795971262    1.29388289431099    2.44789131463132
C         2.98524504806477   -0.77641965462820    1.38271192228717
C         2.78318420443612    1.34044836911361    0.28965400465206
C         3.30885448080101    3.92432287433266    6.69042901501331
C         4.33292574883583    3.50079670640731    7.51189561294252
H         5.23792765241936    3.12266373224244    7.06569187001681
C         4.15562027292545    3.55912561574442    8.88242426119901
H         4.94662693851440    3.22670440208930    9.53788392197910
C         2.96604438228573    4.03345229603531    9.42646398597225
C         1.95250289078485    4.45831794903304    8.57079854671188
H         1.02620771812274    4.82796718730698    8.98547986164511
C         2.11995488159250    4.40740119742662    7.19923805073995
H         1.34936991067239    4.73740691875881    6.52059805282830
C         2.77830074321335    4.10900217621756   10.90943804354206
H         3.48531572289269    3.46532347482588   11.42541002125636
H         1.76717370251615    3.81910282963893   11.18567436156049
H         2.93677706529124    5.13222053155271   11.25050560894535

