33
CSD_code = BONRAY | q = 0 | S = 0 | Stoichiometry = C15H11Cl3IrN3 | MND = 6
Ir       -2.36439272460724    1.81473433798396    9.65165841519441
N        -2.41812455576278   -0.17094415821465    9.44268640286247
N        -3.62878591539112    1.44670467409037   11.00170443411991
N        -2.67737610265582    3.69342432606774   10.25276950431640
Cl       -0.67087621126028    1.58612782824480   11.29522420227599
Cl       -4.17645885650106    2.00647846581660    8.13437246794939
Cl       -0.82020697703005    2.26254306632190    7.99904837931727
C        -1.73844248534736   -0.92547269241419    8.59037695481897
H        -1.06508721595895   -0.39922043670174    7.92530318982614
C        -1.87531783495419   -2.30269767573659    8.54588715823625
H        -1.30213579371808   -2.87641836347521    7.83619301092146
C        -2.75538559234835   -2.91634580483296    9.42418425329558
H        -2.88790514832486   -3.98728815448134    9.41568263708485
C        -3.46507550650978   -2.13151148397673   10.31609995127442
H        -4.15614542559639   -2.57956901161921   11.01151378633541
C        -3.28299766445058   -0.75263710473469   10.31215476548620
C        -3.97891498421241    0.17223429116655   11.20920950193503
C        -4.91256514067529   -0.12472807703394   12.19658128523593
H        -5.21409409688294   -1.14137063054445   12.38712290849955
C        -5.45222090094775    0.91875547335828   12.93630242769686
H        -6.17832373707532    0.70868052343218   13.70614001318602
C        -5.06652864395183    2.23018592349723   12.69397705290578
H        -5.48815927508224    3.03777558023712   13.26912660170657
C        -4.12903534778177    2.47496786396891   11.69600463033211
C        -3.57829428148753    3.76186181739110   11.26575124726549
C        -3.92444258788516    4.98711663811301   11.82557110921448
H        -4.63977828613617    5.02616456083997   12.63097852771577
C        -3.34469039258692    6.14689344788597   11.34185794040842
H        -3.60373594266673    7.10399145972524   11.76777231630053
C        -2.42882689548177    6.05538761183098   10.30480284196202
H        -1.95496981564731    6.93336002223340    9.89745591370255
C        -2.12427113087042    4.80624393684288    9.79064045011512
H        -1.41483453021175    4.68177174471764    8.98204571850276

