52
CSD_code = BONSED | q = 0 | S = 0 | Stoichiometry = C18H30Cl2RuSi | MND = 10
Ru        5.42350165482614    1.33612284786380   28.20035988844094
Cl        3.73003371705953    2.28897451511007   29.55288400990241
Cl        3.87432795983732    1.86690152550403   26.48769552421839
Si        6.35669769314806    3.88648399630626   33.30497400536196
C         6.80412217061520    2.83284997877022   29.23477738514799
C         6.98156917027595    3.21345904736720   31.65491928479473
C         6.35694039947873    3.26835703555025   27.96699699336666
C         5.18819899742668   -0.46215773518866   29.59457206006333
C         5.55033573630915   -0.68985519620282   27.30669524481624
C         6.41106499322701    3.46380062068178   30.46834083449716
C         3.09353162089680   -0.99327302926952   28.14334791390960
H         2.95803059000878   -2.07138959731832   28.25171580605519
H         2.75239745680191   -0.69339362164816   27.15441520967922
H         2.48285961907106   -0.48490993803669   28.88755647546700
C         4.53390669589330   -0.63966932779939   28.32683266677176
C         6.58173441748916   -0.33172988825041   29.35301564188904
C         6.73876547968026    2.47032340999767   26.86985666967187
H         7.72392715718944    2.01058495327548   26.88913286663761
H         6.40247591474121    2.75898174602576   25.87949312001781
C         6.80857764148547   -0.46773069676058   27.94195633675877
C         4.84874227517117    5.01182890383911   33.03668989522153
H         5.11642690981371    5.91134830931410   32.49049773157034
H         4.40985081591623    5.32074409721658   33.98077513633478
H         4.07978242554864    4.49670358497768   32.46925102686297
C         4.51681409439963   -0.55438062318015   30.92364709545620
H         3.84351263878275    0.29453029419536   31.06350485397488
H         5.24382858217702   -0.55396021431763   31.73121142675169
H         3.92403382113747   -1.46773786777671   30.97271764165382
C         7.63344256662930   -0.31127131387102   30.41514224210814
H         7.77294351305010   -1.32379486530583   30.79975358012081
H         7.33545694615018    0.32936172474266   31.24334259419048
H         8.58955547921391    0.03462668876482   30.02864329756830
C         5.87460801877342    2.37149297170614   34.36723619826537
H         5.07896624916691    1.80373854903517   33.89408030020019
H         5.52266969512926    2.67520329031566   35.34838051065869
H         6.71718259408322    1.70204666595512   34.51625156630183
C         7.77398968800199    4.83842946078074   34.16159262741614
H         8.64451343309472    4.20691890546555   34.31129219371730
H         7.46462154879131    5.20380267718032   35.13580926167738
H         8.08801402971893    5.69589527923753   33.57422650994192
C         5.30618964357524   -1.08086571500131   25.88698845027708
H         4.89957506752310   -2.09203366544493   25.84971247086789
H         6.22185789684125   -1.04694811248805   25.30290486552331
H         4.57989562985361   -0.40392276468818   25.43440783900203
C         8.15238361977156   -0.64323738667998   27.30681988282718
H         8.91027768089305   -0.02829811452374   27.78936464597751
H         8.12605406340872   -0.39474108114191   26.24838225231831
H         8.45822246176237   -1.68701107402277   27.40408766422499
H         5.57868493992677    4.15092302017182   30.41170139599372
H         5.69526737732598    4.13018746863251   27.85907558526155
H         7.82408084092032    2.52951516871178   31.67405446409932
H         7.74615636720494    2.28177509221500   29.27021685598277

