167
CSD_code = BONTII | q = 0 | S = 0 | Stoichiometry = C71H89N3OP2Pt | MND = 4
C         7.16746433863989   -3.42492709896657   -6.16649948227488
C         6.03482265629052   -3.95825689938397   -5.54970006231090
H         5.13960746790950   -3.35836913491959   -5.47520774335291
C         6.05592990295729   -5.24221298639591   -5.04221585150025
H         5.17082720410297   -5.64107689559141   -4.56820267201703
C         7.19722588322942   -6.02049187943958   -5.14718769659530
H         7.20919989591183   -7.02505222011920   -4.75209955188672
C         8.32317441870447   -5.49880282212586   -5.76305434380145
H         9.21999534899135   -6.09557176006366   -5.84498477033949
C         8.31533180816292   -4.21218580392995   -6.26491569351178
H         9.19995622544705   -3.80508298560970   -6.73266100192777
C         7.85168236383082   -1.79898097491475   -7.83243129663009
C         7.93015524119008   -2.70889915986459   -8.88733786341061
H         7.43900516863531   -3.66712606067672   -8.79985988012520
C         8.62503607244837   -2.38550386364674  -10.03603428310589
H         8.67582933800166   -3.09945998146643  -10.84518525226736
C         9.24399844423505   -1.15225867461258  -10.15953208772643
H         9.78399700220787   -0.90228486591092  -11.06018432031351
C         9.16337615785079   -0.24199753037350   -9.11845581114637
H         9.64583484492342    0.72083475047385   -9.20364562201059
C         8.47817489200655   -0.55904959001038   -7.96221909676766
H         8.42459198822326    0.14951129951159   -7.14861452583244
C         6.43108835998799   -1.12781802472409   -5.98602820281255
C         5.71590735594113   -0.16396362899357   -6.69765224277281
H         5.72818223105569   -0.19406406451018   -7.77765642789806
C         4.99411749744311    0.81557689858907   -6.04071429377999
H         4.44418463967587    1.55307262385262   -6.60642154936123
C         4.97451475504271    0.82335145023524   -4.65516132602040
C         4.30911348697598    1.69798478545634   -3.70942637011382
C         3.49427704530042    2.80297687166787   -3.90408920183864
H         3.25514698053654    3.14339935915720   -4.90153219922351
C         2.99360064339037    3.46664869844725   -2.80062340013183
H         2.36043527867012    4.33415390937691   -2.92779372962307
C         3.29465473546980    3.03874399178057   -1.50372530927530
C         4.10997337658962    1.91437026415932   -1.31211514592177
H         4.33100725251681    1.58468695229547   -0.30636587428030
C         4.61134939787079    1.25959432257802   -2.40936488844076
C         5.51435301769526    0.04871647549068   -2.44986471966129
C         5.69040027001524   -0.14791219112350   -3.93674030719952
C         6.42134175053748   -1.11137776085498   -4.58768971163409
H         6.98338056624119   -1.85501878832472   -4.04111093322331
C         6.85722355307806    0.32646386123645   -1.75092999441886
H         6.66859030511503    0.50208122045981   -0.68930001731721
H         7.48789276776605   -0.56152271961049   -1.83628515568944
C         7.59068711073664    1.52638471974507   -2.33752542977709
H         8.53270804553978    1.68262255344880   -1.81599847967456
H         6.98905804030033    2.42726879585939   -2.24139126340230
H         7.80243867687215    1.36704389905197   -3.39249560954003
C         4.84293205057232   -1.17790814192517   -1.80540806537492
H         4.69830274891397   -0.97869804686595   -0.74094626956458
H         5.51489939836345   -2.03451090784514   -1.89788810158500
C         3.50050628677931   -1.51795885950442   -2.44172555757515
H         3.06674020995805   -2.39198641868659   -1.96048998123497
H         3.62233088366328   -1.73204852229878   -3.50118898981019
H         2.80604749548386   -0.68686313196874   -2.33936459996072
C         2.78979077675308    3.73464629276979   -0.38212189181998
C         2.37932285987604    4.32768239061404    0.59365864100498
C        -0.67961007210317    3.21755159127810    3.38771105770568
H        -0.83666907724424    3.88816351602491    4.23636296075942
H        -1.57347432765916    2.60290405881230    3.26148464822445
C         0.57299430798377    2.36987356808986    3.61972631411942
H         1.45865427680082    2.99373176507621    3.39805119386012
H         0.57926995689455    1.53101044588380    2.92013356574346
C         0.69317461238406    1.85043290585631    5.05156635868057
H        -0.25184434065009    1.39297287060430    5.35514169588961
H         1.46043494598042    1.07313788896703    5.07955966943197
C         1.07297214063699    2.95064725757588    6.03588337792873
H         1.21313852566465    2.53855333403626    7.03271175869336
H         0.30381081028295    3.71674921982207    6.08971879148104
H         1.99929646503020    3.42831350482710    5.72250505206200
C        -0.64132333952457    3.26303959205987    0.45654173028342
H        -0.64312309528445    3.95172970666162   -0.39497193778238
H         0.26075740157977    2.65330324772922    0.36321312291790
C        -1.88906004227505    2.38679757193640    0.43505574846611
H        -1.77773653909375    1.56866698813255    1.14959672216537
H        -2.76527051800517    2.97047190806136    0.72865799819557
C        -2.14231956591772    1.79716650433882   -0.95431445214703
H        -3.07787791127632    1.23292563356111   -0.92642630352420
H        -2.26871866414901    2.60995371951027   -1.67320585402325
C        -1.02092659581957    0.87795760997457   -1.42483558763223
H        -1.28959269689117    0.41175587505834   -2.36974579946783
H        -0.84112344250770    0.09094649073566   -0.69540640105059
H        -0.09630513867673    1.42984199308931   -1.57261536174597
C        -1.78804191011450    5.48894909485689    1.96504994506857
H        -2.71932869682870    4.98799787369225    1.69403959686224
H        -1.87220909813679    5.85913960984379    2.99101609160365
C        -1.47301083505537    6.65413284437395    1.02825799309604
H        -1.55548580644168    6.32889677414033   -0.01184876088397
H        -0.42896308799301    6.94763605557606    1.20466562913853
C        -2.37050519213048    7.86824935649304    1.25650827501926
H        -2.28258877133743    8.18626991357393    2.29758057322608
H        -2.01640414799205    8.68936474940134    0.62868666113147
C        -3.83408789641999    7.59144957169282    0.93212915255693
H        -4.42091686019150    8.50172841330591    1.02936498470682
H        -4.24992924015923    6.84873016967901    1.60860727692789
H        -3.93606726206687    7.22656514492067   -0.08803771280831
C         3.54039744241300    7.97311775616858    2.40923747792570
H         2.97381891783907    8.37728678881785    3.25418813240972
H         4.51377758866955    8.46843740152320    2.36699133190356
C         2.75440306309119    8.18738565131095    1.11535390363959
H         1.91193191999264    7.47457713290444    1.10256356757868
H         3.38713000239452    7.95836288853884    0.25470907815877
C         2.20797948849452    9.60533168741571    0.98757736205724
H         1.56847325572062    9.82090387238155    1.84662387302601
H         3.03626945689181   10.31845235342019    1.00239804328877
C         1.40720362925878    9.78182356205607   -0.29664866728141
H         1.00481941072066   10.78973738230980   -0.36250246645201
H         0.57929671252717    9.07678889906844   -0.32580611920493
H         2.03590138224794    9.60513656842581   -1.16653629999662
C         5.18630702618020    5.70899592087238    1.70755210691208
H         4.90126401936441    5.83083913821304    0.65843278222076
H         6.00639586765675    6.39538498475840    1.93063486921656
C         5.57529697398206    4.25350611929744    1.95577065708681
H         4.65738818297989    3.65583950866573    1.96942228563590
H         6.05626815550362    4.15707899843047    2.93227478165174
C         6.50252185895975    3.69706639312167    0.87672819056530
H         6.67036190741038    2.63589815812272    1.07427612933150
H         6.00785610830097    3.77821476922425   -0.09294417396197
C         7.85002905308028    4.40693137877844    0.82392205060101
H         8.49890866471292    3.92761792531206    0.09487319232838
H         8.34100263015260    4.36974846378882    1.79478022239625
H         7.73194261334070    5.44853722760435    0.53577253327255
C         4.26349018202176    6.02644541726716    4.45071763157807
H         3.43496536141337    6.41496289978328    5.05183551748629
H         4.34904508825691    4.95693058517343    4.66444685232899
C         5.55796578379337    6.75281661005769    4.80339087595395
H         5.50140304536584    7.78507629697720    4.45141774514644
H         6.40476324457215    6.27368511091196    4.30783333645598
C         5.81199822324187    6.77122374260411    6.31245606097143
H         6.67803548330586    7.40743562524733    6.51017234814044
H         4.95188041925808    7.21869325926491    6.81563326794818
C         6.07502076428543    5.38628754590337    6.89247796129954
H         6.33534949840077    5.46364096429514    7.94540105452260
H         6.90029467502675    4.90439376714326    6.37196668157711
H         5.19603204218322    4.75239404607756    6.80905637484776
C         0.97524577096619    6.14687446499283    3.86175687550567
C         0.57047932146593    6.74438072845469    4.83913343670514
C         0.12509880045081    7.44462026862661    5.97869757600009
C         0.48822875877197    7.01669918691461    7.26171634378663
H         1.10421627888074    6.13429692751358    7.36919307499463
C         0.06817543243731    7.71024782677769    8.37307076309477
H         0.35123157556860    7.37977099565960    9.36210711385682
C        -0.72679249354836    8.85004193335770    8.23052357291900
C        -1.09614448872213    9.28114028098056    6.95278107697397
H        -1.71091404755848   10.16301918599270    6.86427758663400
C        -0.67519671744776    8.58698755035186    5.84363425463051
H        -0.95373802415574    8.91812371264758    4.85287870576708
C        -1.16775501531171    9.59011927290532    9.38193623129191
C        -1.43106419923111   10.16668359683817   11.40179265394820
C        -1.32763304541833   10.16282165153553   12.84185050322895
C        -0.60636116470148    9.16961706390355   13.50223620840639
H        -0.12044649888194    8.39298001360779   12.93048069244959
C        -0.51871325093973    9.18618691926000   14.88112531435512
H         0.04024199480417    8.41633059144460   15.39268701813145
C        -1.14514942650136   10.18655899381523   15.60692508046166
H        -1.07352856302345   10.19574358275468   16.68456403725964
C        -1.86357685641412   11.17556815799789   14.95143981097811
H        -2.35053528925948   11.95381354428686   15.52002953101447
C        -1.95808306940664   11.16881982010067   13.57413743624696
H        -2.51034107139863   11.92628559925025   13.04119729083873
N         7.15308125309401   -2.11997209416324   -6.66588922918706
N        -1.91063289757420   10.66185637949103    9.38865519972141
N        -2.07580338846010   11.02459438950424   10.66625712569226
O        -0.82692081715241    9.22064411551938   10.64139251597377
P        -0.37792950940204    4.31208775402135    1.94626439360481
P         3.70793129570959    6.16571182405508    2.70121317503401
Pt        1.68343442316245    5.22817662797621    2.23036980989961

