187
CSD_code = BONTAA | q = 0 | S = 0 | Stoichiometry = C76H106B2P2Pt | MND = 4
B         2.10716296142633   10.85880475212742    6.75458968167891
C         0.64893248987550   11.42891569463423    6.61062536236177
C         0.42824723719816   12.78841772778765    6.34523513437568
C        -0.86043550770288   13.27532003942065    6.18123733948234
H        -1.00303411879536   14.32951887236305    5.98284717327176
C        -1.96563444438721   12.44392897656283    6.26441788832567
C        -1.75062471782802   11.09993273230572    6.53080430231137
H        -2.60027161303371   10.43406346819748    6.60380164562685
C        -0.47396597551175   10.59078000532138    6.70838061446270
C         1.56209238732235   13.77204348961575    6.25057795719637
H         1.31864663058093   14.68113073699816    6.79927502635820
H         1.73190101210984   14.04689551187857    5.20906263331883
H         2.48549795656206   13.35939269014922    6.64461258035360
C        -3.35217595266815   12.98968787722900    6.09953345337817
H        -4.04563908521281   12.20630757845922    5.80169508840484
H        -3.37013715594838   13.78074167826932    5.35219869273757
H        -3.70251374096258   13.41166198509979    7.04266026222748
C        -0.30895083887177    9.12268581333265    6.97482064645518
H         0.29755254614964    8.96010013626513    7.86308489888842
H         0.19171270785329    8.63693644837837    6.13803590525444
H        -1.27640092623387    8.64610429106193    7.11749158730237
C         2.58662512655717   10.07236339403412    8.02864875275962
C         2.50628817643278   10.64314084206553    9.30920969306296
C         2.97343116003812    9.95500537130914   10.41840547581576
H         2.90650886049504   10.41844420334905   11.39377074471327
C         3.52036322770711    8.68612698153173   10.30770607473938
C         3.59030254060198    8.11576150773971    9.04626774248031
H         4.00657879693394    7.12292969905539    8.93641651536432
C         3.13968110828094    8.78738314943640    7.91973890410104
C         1.94392877602277   12.02221064934570    9.49696061153684
H         1.86011179322845   12.26307114101743   10.55446668116660
H         0.96043959255652   12.10126492783407    9.03923085764595
H         2.58883674689304   12.76407085644309    9.02732453282559
C         4.00491321590811    7.93663849598741   11.51229768799598
H         4.07665735306421    8.59281443101808   12.37659533984100
H         4.98257409594667    7.49586891087501   11.32306554779955
H         3.31552732953569    7.12667212523689   11.75333840784460
C         3.24864609407640    8.08066099798121    6.59654219853923
H         2.62594444212511    8.54691966422041    5.83951081456691
H         2.95613598670361    7.03662743134881    6.70153176818692
H         4.28090465123450    8.10402062577216    6.24562380004340
C         3.11291285657392   11.08421248158977    5.59100651907182
C         4.49912849900461   11.05737842437505    5.80387789181555
H         4.86808818791956   10.87660513991623    6.80499454520805
C         5.39508885223215   11.27083880272855    4.78142817861448
H         6.46032819424503   11.25606525669177    4.97192440570138
C         4.94045830069913   11.50488676507406    3.47924053403004
C         3.56144112053934   11.52378517414972    3.24569862277787
H         3.19930135329709   11.69927855098110    2.24070112975884
C         2.67607425906236   11.32799488083339    4.28069603447171
H         1.61261869276279   11.34951624585903    4.08172164972935
C         5.85473326850245   11.70985945108066    2.42295340472455
C         6.64687412098705   11.88350699535912    1.51984790075485
C         9.12045344279889   10.20075185787771    2.74478757497148
H         8.97116478049758   11.14073169842696    3.28449939444113
H         8.15698947835683    9.68088825896573    2.75864466762667
C        10.19036948892352    9.35872572425248    3.43032578017865
H        11.10344822764468    9.94435961003177    3.55523472719690
H        10.43478857114734    8.48540190856782    2.82049605146246
C         9.71688334899001    8.88647964913357    4.80458727407670
H         9.46789283360739    9.75564097577826    5.41754420700072
H         8.80708205024090    8.29295453456776    4.68919029351465
C        10.77936584087206    8.05453826497981    5.51229108404511
H        10.42414752304499    7.73131932348009    6.48762043369646
H        11.68862622601999    8.63503789789239    5.65392493778757
H        11.02582774857589    7.17084467702522    4.92722482901892
C         9.33261643108633    9.04086780368178    0.08139036943282
H         9.96509922582527    9.13378467900704   -0.80618698798367
H         9.71087367619720    8.21879492759738    0.69420662637419
C         7.88526802746862    8.79656379576387   -0.34328140944575
H         7.25679644007035    8.67153101420157    0.54270405983733
H         7.53256750062744    9.69421827729905   -0.87892423307819
C         7.73719524338138    7.57986926230218   -1.25075682718426
H         8.07121921075601    6.68579410420292   -0.71772234189035
H         8.37917806967878    7.70397108324015   -2.12589775705644
C         6.29463882571398    7.39302720892499   -1.70409624416530
H         6.20148446818481    6.51641750165816   -2.34076645137125
H         5.96002342030811    8.26281321724759   -2.26512255213297
H         5.63939711988272    7.26447719900896   -0.84498396875090
C        11.18917059994665   11.09833508110944    0.88470132389820
H        11.81229215606065   10.34197265681328    1.36806083369761
H        11.43978049135843   11.13003166192433   -0.17930242320980
C        11.39294783026433   12.48128890108192    1.49645689459992
H        10.68667450098441   13.17082279871057    1.01855412004710
H        11.16196957900346   12.45364785260596    2.56485119882300
C        12.81539809520272   12.99622642432490    1.29757895113226
H        13.52119306042701   12.29854384707743    1.75624979875718
H        13.03541002118868   13.03592360401564    0.22878829085177
C        13.00473708360694   14.38217071214438    1.90119882819721
H        14.02529324009112   14.72756277415401    1.75476793839791
H        12.79808447684722   14.36662532250821    2.96939917373590
H        12.33028684861782   15.09447477415980    1.43204269105994
P         9.41253311317103   10.64404722054101    0.97877234876728
Pt        7.93476861542942   12.07084684792721    0.00096114629261
B        13.75721197173821   13.28689339859971   -6.75587447472916
C        15.21592348192712   12.71774220070008   -6.61313466913225
C        15.43794380918001   11.35848441983396   -6.34763706397741
C        16.72721026807284   10.87258076409584   -6.18507466795172
H        16.87075455806757    9.81854196205042   -5.98650981608245
C        17.83170731625142   11.70468517110145   -6.27004377435467
C        17.61534009347285   13.04851862328445   -6.53621336830701
H        18.46438683969925   13.71502029439201   -6.61037405345057
C        16.33809930858366   13.55672477497407   -6.71216054057317
C        14.30515462752402   10.37376992894336   -6.25148841530399
H        14.54798378162815    9.46574751267929   -6.80223051932604
H        14.13837586998517   10.09710617683914   -5.20996358331671
H        13.38034963426378   10.78615863068666   -6.64248344850052
C        19.21892122581053   11.15994356558106   -6.10758132026053
H        19.91202074816465   11.94347559217365   -5.80928353913660
H        19.23852916322481   10.36762756763738   -5.36163787731064
H        19.56850473246887   10.73993693427514   -7.05188037355252
C        16.17171783663893   15.02472886494878   -6.97824554366957
H        15.56409270092849   15.18701171248902   -7.86579792851306
H        15.67166464586740   15.51000888560223   -6.14081481445632
H        17.13867609329954   15.50200592153423   -7.12193730584847
C        13.27607760572315   14.07280568519820   -8.02964841018489
C        13.35500677004547   13.50164862387728   -9.31012186980284
C        12.88634290767518   14.18931226301110  -10.41896761548101
H        12.95212337704131   13.72557281127934  -11.39426862382637
C        12.33930230982106   15.45813066018501  -10.30801986978858
C        12.27082573729813   16.02890591009679   -9.04669095408527
H        11.85457718252306   17.02172777515022   -8.93663987418062
C        12.72287314960788   15.35768795765691   -7.92048755553428
C        13.91745106261944   12.12263500554133   -9.49804624054619
H        13.99993081086365   11.88135435207823  -10.55556502948575
H        14.90157403462192   12.04404642925202   -9.04159347359022
H        13.27337099227285   11.38080724029662   -9.02722264294579
C        11.85298234315960   16.20710016442050  -11.51222322951713
H        11.78071303106215   15.55072786672857  -12.37631741963039
H        10.87522673849084   16.64723959246558  -11.32199113080812
H        12.54153313078878   17.01750026581826  -11.75416349098408
C        12.61529227136446   16.06478989371163   -6.59738450056618
H        13.23731743312093   15.59759373163404   -5.84037686963286
H        12.90957484750015   17.10830969373539   -6.70258644506181
H        11.58302698086503   16.04326380153693   -6.24636199880802
C        12.75253506165594   13.06014874887376   -5.59164939031920
C        11.36619886383085   13.08576458958055   -5.80361538240585
H        10.99627864163242   13.26778060071427   -6.80414285642635
C        10.47112679954772   12.87007786289846   -4.78084732008821
H         9.40576601799441   12.88387492931384   -4.97068875449380
C        10.92683555006307   12.63519086093593   -3.47925025999296
C        12.30604727763597   12.61719824345302   -3.24659288544983
H        12.66896838359126   12.44074001122816   -2.24204441618233
C        13.19050988195744   12.81526533138512   -4.28188151683520
H        14.25411736070126   12.79503633589024   -4.08360551174351
C        10.01330491200461   12.42837791173729   -2.42273719526408
C         9.22233140993490   12.25745269470662   -1.51808845977398
C         6.75060491612029   13.94375679726511   -2.74165052035585
H         6.90192859166423   13.00471509810953   -3.28237971995004
H         7.71319492661855   14.46523184214901   -2.75418469505292
C         5.68023275407807   14.78488592004289   -3.42765487839504
H         4.76775004191609   14.19841587777289   -3.55285842576516
H         5.43485518618488   15.65784351546433   -2.81770792018085
C         6.15313480491347   15.25809654813240   -4.80179662431674
H         6.40147850002911   14.38930160131313   -5.41550880427284
H         7.06324606029614   15.85113424318837   -4.68641634348662
C         5.09075609719841   16.09102285453505   -5.50852217205316
H         5.44592726407901   16.41559009214533   -6.48342678163444
H         4.18147263659032   15.51074942625693   -5.65088258726426
H         4.84435259386073   16.97389713151977   -4.92220732587110
C         6.53764110093521   15.10108893839447   -0.07803229928480
H         5.90458691607962   15.00786153100371    0.80908803867045
H         6.16014071740402   15.92370484002520   -0.69065971245343
C         7.98500219468388   15.34405168996737    0.34741117908941
H         8.61419027812061   15.46799722719859   -0.53824232255159
H         8.33644026446112   14.44632698800764    0.88376369307564
C         8.13363424749921   16.56108965883135    1.25435445974202
H         7.80013126430039   17.45516088745470    0.72098540839859
H         7.49165348896474   16.43772678246259    2.12960459341781
C         9.57636153362358   16.74729573667905    1.70743621682930
H         9.66913088873745   17.62130081748861    2.34765556193147
H         9.91207598883484   15.87552231142340    2.26465649319334
H        10.23098207496382   16.87997280382489    0.84851217040927
C         4.68142428541676   13.04412124121772   -0.88392450942684
H         4.05818270656714   13.80012900595623   -1.36772072079004
H         4.43008933036253   13.01233756816255    0.17988500190952
C         4.47829804625363   11.66097645430456   -1.49553609445129
H         5.18491624959010   10.97182087112430   -1.01758414434637
H         4.70935576307347   11.68866486155632   -2.56390219923425
C         3.05625686915726   11.14492939920313   -1.29681646145086
H         2.35005394053341   11.84266196403708   -1.75474152962316
H         2.83660708530028   11.10439888347244   -0.22800149590444
C         2.86706383629382    9.75934110853402   -1.90126864134937
H         1.84634508300081    9.41394594216233   -1.75591522435451
H         3.07466321082260    9.77551796970017   -2.96926615220182
H         3.54108591882734    9.04676782948257   -1.43196561353479
P         6.45819519530307   13.49824597930664   -0.97613610017871

