137
CSD_code = BONTEE | q = 0 | S = 0 | Stoichiometry = C56H72N4O2P2Pt | MND = 4
C        -8.28545973263787    9.40098327475519    1.37340007217105
H        -7.60000755955383   10.22232065890130    1.50857275466422
C        -9.59473042240596    9.60683404016829    0.98688150916414
H        -9.95216339400616   10.61078484160594    0.81274607874938
C       -10.45190842908405    8.52892621980715    0.82177113966763
H       -11.47547604525882    8.69434563885666    0.51950126733514
C        -9.99713368589448    7.23910513445978    1.04414489249662
H       -10.66555755573488    6.40045724079957    0.91524843587518
C        -8.68876356388238    7.02121764999801    1.43120872231909
H        -8.32757543976541    6.01872933046448    1.60639725083262
C        -7.82604595357527    8.10320537241297    1.59785808739704
C        -6.45569410152190    7.89770042532707    2.00309279632736
C        -4.67530879950809    6.91068332865677    2.58327300889058
C        -3.76062058233414    5.85398655891432    2.92325398657418
C        -4.16856876693072    4.51835831410184    2.89873771855575
H        -5.18375775907538    4.27756985534320    2.61786493675053
C        -3.28268162995829    3.51966858353236    3.23059935562743
H        -3.59556367294558    2.48493970069855    3.21371414731456
C        -1.96707206152256    3.82856485248586    3.59602509397500
C        -1.56529035325151    5.17037115868675    3.61612526517780
H        -0.54957236907688    5.41294976324202    3.89763413370001
C        -2.44822637686447    6.17080086310832    3.28468166468103
H        -2.15351405537940    7.20828031880022    3.29686845422551
C        -1.06239379705723    2.80057893355836    3.93585487696698
C        -0.29307736041247    1.90644313915599    4.22307581169600
C        -2.15664940445121   -0.60960253363667    3.39987234151962
H        -2.63007703264785   -0.10666921524210    4.24967779332062
H        -1.95506751078212    0.16546983809111    2.65418271672133
C        -3.08834152512356   -1.67038327882223    2.82484924673529
H        -3.21003447484457   -2.49415198911181    3.53214446824392
H        -2.66561778143651   -2.07922903582337    1.90505599396957
C        -4.46241830324370   -1.07836333188691    2.51214343314948
H        -4.89929232326790   -0.67476582140962    3.42865250933120
H        -4.34491321087075   -0.25092932684717    1.80848457110912
C        -5.40417812788563   -2.11864810748465    1.91840800243655
H        -6.37423058336414   -1.67753817879515    1.70329512558406
H        -5.54943038284614   -2.94350656016493    2.61268844226967
H        -4.99705869166367   -2.51871243295823    0.99238868346388
C        -0.90426217690843   -2.27077722650185    5.44213086243455
H        -1.80613087704636   -2.86209410224848    5.26702709733056
H        -0.05714129404898   -2.95175431154041    5.56354600096279
C        -1.03913939472912   -1.39590730141925    6.68749400876862
H        -0.15369840817498   -0.74216491211653    6.73975271707435
H        -1.92022161710460   -0.75490244635034    6.59730113615095
C        -1.13447596699839   -2.21560289722479    7.97005510852297
H        -2.01674568703174   -2.85934972769484    7.92488248784549
H        -0.25625476803606   -2.86016012885081    8.04898001533187
C        -1.21835477785052   -1.32279118866661    9.20181109322230
H        -1.29080599526362   -1.92220208185000   10.10591430532483
H        -2.09293529991531   -0.67762599836321    9.14804514416695
H        -0.33247672461530   -0.69614004496405    9.27492271194104
C         0.12447989999450   -2.30932447976336    2.72173966370620
H         0.96450474991139   -2.84640519059437    3.17134623268130
H        -0.62759699074874   -3.03557275346925    2.40622364743883
C         0.63027159193088   -1.45677252685489    1.56054685202198
H         1.24701474170249   -0.65096412713990    1.98358607959986
H        -0.21317897294803   -0.99183126632670    1.04341401852197
C         1.46699127268455   -2.25043994987337    0.56283376368346
H         2.29960632243977   -2.72156431236890    1.08972384550845
H         0.85677524526837   -3.04480209659881    0.12568968649980
C         2.01055399879620   -1.35561212857308   -0.54437463371522
H         2.60286127619023   -1.93424703770383   -1.24877013555155
H         2.64122304169733   -0.57570069771764   -0.12360911276712
H         1.19679664194699   -0.88096136986278   -1.08862032659882
C         1.84399252513768    3.24830207257431    6.43799037366863
H         2.62543808000188    3.94125261711368    6.75802163918973
H         1.05860099855072    3.81742515423381    5.93224013011039
C         1.23795991557107    2.48797946646080    7.61488955466953
H         2.02400333221605    1.96346428982490    8.16458495329453
H         0.55040843775510    1.73220031575233    7.21018722532762
C         0.47572683372674    3.40686042890482    8.56465648747137
H        -0.30206595405686    3.93146931416556    8.00545646022861
H         1.15958482199291    4.15832606823953    8.96770405507796
C        -0.16211148732234    2.63270363133604    9.71134448083228
H        -0.69092328235788    3.30683088959395   10.38062098903241
H         0.59564399210604    2.10422116357619   10.28614373476915
H        -0.87152284630391    1.90383114239311    9.32688952916510
C         4.10388640909428    1.47007758225456    5.86781867162105
H         3.88175173889794    0.78897517335976    6.69536828932131
H         4.53730004000066    0.85766550866074    5.07007166994303
C         5.09335663238143    2.54061955451369    6.31302363957812
H         4.69670093295921    3.08424264189999    7.17282634981845
H         5.26036265550184    3.26039771340241    5.50868270633271
C         6.43219840777676    1.91441396765665    6.70276074260481
H         6.27026653115228    1.18957825070999    7.50405137364376
H         6.84144890716045    1.37491467579536    5.84535607952371
C         7.43426637379579    2.96493733883586    7.16525482220568
H         8.37755912942701    2.49865919125284    7.43833062370207
H         7.05391575599040    3.50128331052864    8.03194681105103
H         7.62536750703946    3.68609938434804    6.37345220687207
C         2.87517741368075    3.05701482534927    3.74093162824933
H         1.97373446464202    3.63910834294030    3.53428708850850
H         3.69879037357454    3.74955417558610    3.92825768722047
C         3.17007132004439    2.12434072134044    2.56478444494838
H         4.20268946979263    1.77367711667336    2.62592103647756
H         2.51374144960013    1.24304408375454    2.65638163449153
C         2.92598471322502    2.77406871578934    1.20323123830583
H         3.40124125356572    2.16407864803607    0.43121783989153
H         3.39793056108983    3.75944396521073    1.18033938287577
C         1.44222439403125    2.90460854945151    0.87972998535762
H         1.30566764828060    3.34232532018594   -0.10620170211548
H         0.93020678287565    3.53275126273401    1.60378045734136
H         0.96727487040847    1.92602087252000    0.89281067699993
C         2.27921058090763   -1.05632037370902    4.97978715591888
C         3.09735564290140   -1.94125205162688    5.12763128686977
C         4.06157946054073   -2.95720240773536    5.29970414874241
C         3.77815778947169   -4.28015636141492    4.93660940466241
H         2.80292002068173   -4.51943974791892    4.53526700134570
C         4.72580953575343   -5.26525746707994    5.08431621752111
H         4.52257892327413   -6.28772103540576    4.80736945463326
C         5.98629811072587   -4.95185249672060    5.60060765868668
C         6.27533851838063   -3.63604524790761    5.96940853899894
H         7.25023805525718   -3.39809759025064    6.37001187470863
C         5.32485890051229   -2.65257497414338    5.82056381873916
H         5.54629421373745   -1.63276023993499    6.10321329797489
C         6.97090832638688   -5.99117514580917    5.73957393206716
C         8.80052807239569   -6.96027600447859    6.18019508461075
C        10.16386476819695   -7.16093148802314    6.61076993626709
C        10.72380122726206   -8.43625159571287    6.53417745936550
H        10.11893227193688   -9.24392911315965    6.15403373511089
C        12.02742248148826   -8.63759043203619    6.94147735995752
H        12.46272017249983   -9.62402337738619    6.88244797314552
C        12.77945527796065   -7.57740302919932    7.42565342096519
H        13.79902373702318   -7.73919865745599    7.74305359739353
C        12.22470044163327   -6.31006360046662    7.50281210519438
H        12.81125919735549   -5.48526018666483    7.88016998722539
C        10.92098953677730   -6.09682256626967    7.09767730678816
H        10.48229982003334   -5.11172410959972    7.15482113387849
N        -5.55063838327117    8.81216292043021    2.19692797893839
N        -4.42408798640904    8.18997997361149    2.56392887029148
N         6.82898380448411   -7.25099753155426    5.43472116850220
N         7.98644218427865   -7.86182085787993    5.71393807222380
O        -5.96029689187632    6.65694031045301    2.23326433508031
O         8.21219695838045   -5.73959836759236    6.22341510052076
P        -0.51584826929054   -1.17922888849780    4.01741592721889
P         2.47699432628357    2.03700785489668    5.21367359748371
Pt        0.98267106043080    0.42391151929218    4.62595000227727

