46
CSD_code = BONXAE | q = 0 | S = 0 | Stoichiometry = C21H17N3O4Zn | MND = 6
Zn       13.07296790072562    7.40736552948173    1.12749346772951
C        15.85222571731906    8.65753931402789    2.31305811558345
C        17.15591136331555    8.93818148712447    2.75809035354137
H        17.85594319425042    9.36732800626415    2.05263245694336
C        17.55216981317214    8.68836872840221    4.04627124031697
H        18.55759697084988    8.91596283629901    4.36649477122498
C        16.63729145722853    8.13123099372353    4.94260139449165
H        16.94278844790671    7.92887217928065    5.95976121629513
C        15.36024713109511    7.83967710691928    4.54298893280568
H        14.64862948717057    7.40673980320185    5.23078203607593
C        14.90691762213433    8.09158405641412    3.22422427742075
C        15.54501150404813    8.91457677652912    0.94306286084415
H        16.37261216672628    9.29199915794524    0.32771737539944
C        14.21898256438506    8.91999629655249   -1.00241969531984
H        15.16033362566076    9.03558288468384   -1.55268254659849
H        13.58098941906441    9.78976466268687   -1.19378304000744
C        13.40991531699200    7.69570513249128   -1.57673688309244
C        15.49965867558382    5.47415284713668    0.57671892961132
H        16.13899671298725    6.33491581450329    0.71836160542449
C        16.01761287942006    4.27899906147763    0.06810289658914
H        17.06035752899512    4.21716689376839   -0.19992426828024
C        15.17616835158386    3.20509085685221   -0.08601900711478
H        15.53349413972470    2.26518645449144   -0.48164936518257
C        13.82533099469113    3.33634653825289    0.27629872827778
C        13.40145587060135    4.58926970443164    0.77209475127209
C        12.02583873601386    4.77745652306560    1.13453721928234
C        10.38215131745769    6.16985709900221    1.90097542686865
H        10.12185948128945    7.16233885784173    2.23654570976414
C         9.41480757530559    5.16318647056321    1.81362722119415
H         8.39439543614834    5.37411451430536    2.09226924027654
C         9.78535721824944    3.92137885439594    1.36044210969053
H         9.06750118760693    3.11886019989253    1.26818154932458
C        11.12506520696689    3.69692851239501    1.00261299911098
C        11.59070691579834    2.44445364222306    0.50849714406394
H        10.87856012392382    1.63770696936840    0.41464180435087
C        12.88651212235252    2.27196249560376    0.15605021696307
H        13.23659675049108    1.32492430972405   -0.22763386900566
O        13.68175467105081    7.82230475505293    2.92099481914552
O        12.60257876559097    7.16471510742073   -0.76145726588818
O        13.61154402860932    7.37747972347898   -2.73107950442826
O        11.56256828418234    9.05405600425093    1.74314351420884
H        11.83795207876411    9.84693874562142    1.27489778475107
N        14.39354222582881    8.74488187883161    0.39948273646721
N        14.24058474435382    5.62363924911204    0.91244920077976
N        11.63981528858355    5.98118852195953    1.57839491094458
H        12.03479898580834    9.05712444295027    2.58708642787868

