40
CSD_code = BOPBOY | q = 0 | S = 0 | Stoichiometry = C16H16CdN2O5 | MND = 7
Cd       -0.15534923352034    3.61824263098052    2.71651022444398
N         0.50107057593510    1.53466386071111    3.56779275501042
C         0.22554030371083    1.06922367394880    4.76435549046908
H        -0.14222540195869    1.79182578034812    5.48157000839195
C         0.38469696487131   -0.27867097098443    5.11147412048362
H         0.14321976987647   -0.60716887931794    6.11014508386689
C         0.84285031045655   -1.16031535663466    4.16465881065787
H         0.97516052068208   -2.20945368491023    4.38909660583283
C         1.14095895233426   -0.68629589027533    2.87558499163231
C         0.95118348340008    0.69276612316290    2.62514053762946
C         1.61076033150445   -1.53915131260785    1.83561891031211
H         1.74864953009254   -2.58692391002253    2.06034140886483
C         1.86914522555278   -1.05351861863816    0.59844134240285
H         2.21684719365227   -1.70354802775327   -0.19135213468577
N         1.07195115177373    2.52017270570613    1.08906170680040
C         1.30131551169343    3.00730371405723   -0.10704056719284
H         1.14088732860653    4.07233246240884   -0.22175334072815
C         1.73177694314577    2.21358675585491   -1.17822627119935
H         1.90183868878556    2.66037697033181   -2.14537355126941
C         1.92963629672046    0.87076975550392   -0.97135130237402
H         2.26473895194810    0.22327391719744   -1.76956168633413
C         1.68701454909989    0.32772999423315    0.30226383797888
C         1.24071361091576    1.21045524061050    1.31305656380395
O        -2.19980127466809    4.42342253024611    2.99820047641010
C        -2.64325460741012    3.51303423315941    2.25848971203562
O        -1.90568122794618    2.62669770160190    1.77836968453871
C        -4.13445035293949    3.48005518428035    1.96813673828039
H        -4.33545571000599    2.82835941928366    1.12370414065747
H        -4.48955772227600    4.48700864313803    1.76818462301589
H        -4.64974237208484    3.10062121503180    2.84807259988417
O         1.17924860067916    5.01488851168164    3.76468182610502
C         1.14453799652239    5.78065087225472    2.76961082640704
O         0.54590596233032    5.47813328877400    1.71827653066639
C         1.84988588880529    7.12337351838513    2.86235132493769
H         1.12762573137029    7.86511087006864    3.19727150893286
H         2.22098437292789    7.41681611804832    1.88491298426216
H         2.66067710708618    7.06914241128449    3.58272374473633
O        -0.88072928059239    3.91049983025375    5.45162312908210
H        -0.13685971083461    4.52012904413553    5.35704662926265
H        -1.61331496024871    4.32717967447493    4.97718997598387

