75
CSD_code = BOPNAW | q = 0 | S = 0 | Stoichiometry = C30H28F10N6Zr | MND = 7
Zr        6.59401197107980    2.81321539109378    3.66458784294290
F         5.49854352029117    1.26773743250060    3.42977979043048
F         8.49689217020144    4.17563887057974    2.98954223575537
F        10.02829550867671    6.08708183739968    1.85706588769100
F         9.72266747356998    8.75164856253172    2.56031752656539
F         7.79037087322162    9.39507461557957    4.39611662574339
F         6.22890048835113    7.56463692637367    5.49247021500438
F         6.40198353620765    6.86076843774173    1.21223594628298
F         4.67091952819000    8.75070268394159    1.98695508171172
F         2.50695565033240    8.10356993429718    3.57587859439425
F         2.04691410855829    5.57270866430669    4.24589189660407
N         5.65951147136716    2.51593690169668    5.89805138021979
N         6.62424134428397    4.71741832779078    4.79215983945209
N         5.98233372879492    4.11327804071347    1.99931829677282
N         7.28073456251355    1.90890619811225    1.48974469852849
N         8.33100344753716    2.00029445137524    4.52614504823382
N         3.83275705794909    3.41626773660816    3.37026373829724
C         7.30407186536114    5.75475563952894    4.31295859921200
C         8.31690452622265    5.50531193822540    3.35474530287541
C         9.10840208644230    6.46207837698893    2.75918116457693
C         8.95036379063737    7.79916134266090    3.10517987631616
C         7.96822098402915    8.11798098760076    4.04222720866308
C         7.17678469153838    7.14256460131862    4.61872296885858
C         5.70474156977612    4.94560761918745    5.88365845538233
H         4.83448393358013    5.54951665767194    5.57716808778154
H         6.19502447881127    5.49623834365196    6.70394966409967
C         5.21997798657403    3.64187085719779    6.45834108215868
C         4.39485006368381    3.64628306368992    7.58142504487066
H         4.06443301363048    4.58177704567842    8.00499208562384
C         4.01624298281708    2.43556264003652    8.13204308207539
H         3.36414466137104    2.40219488805404    8.99157450943237
C         4.52184848353124    1.27009884815528    7.58081902159433
H         4.28416737890534    0.31035533490165    8.01216104492305
C         5.35931450465705    1.34372002846675    6.47113794491374
C         6.01050788023676    0.12131893400638    5.91708537308947
H         6.95452163989484    0.41502462783460    5.44715626440835
H         5.37729006561280   -0.32569823971462    5.15184874339805
H         6.17420399654114   -0.61223890136865    6.70341457938074
C         5.15842473721506    5.12702970955614    2.30966701185061
C         5.31343729011501    6.48012060038017    1.93922702154320
C         4.44778690219176    7.47915756253831    2.35083879572924
C         3.36574847961097    7.15654579983090    3.15175849318204
C         3.15088412576121    5.82063891902501    3.49835621546000
C         4.00288149886185    4.80377865832321    3.10349755441359
C         3.47824319598886    2.69028704002410    2.14335378691938
H         4.25391431525983    2.83155695772445    1.39260625948320
H         2.51221809754586    3.03524850941219    1.74980177924331
H         3.40977801556181    1.62948133008560    2.37465443099791
C         2.87868116853696    3.04766199240987    4.40829217706497
H         3.06269670501141    2.00439052947896    4.67247022379122
H         1.83858166455848    3.14174740161966    4.07078690147285
H         3.00531173101250    3.66071638857785    5.29651044598036
C         6.80213601942178    4.19188676584564    0.81324520789306
H         7.63421399666905    4.91465968402455    0.85945027210425
H         6.19371447984830    4.49466231027180   -0.05671921755109
C         7.38116291232303    2.83011556546571    0.53050557908380
C         7.96755811108188    2.56431284198412   -0.70458129255447
H         8.04699268812325    3.34731954197817   -1.44208072570590
C         8.43417190824663    1.28904931749801   -0.95977855754997
H         8.89610024988179    1.04952430997711   -1.90565024972139
C         8.27903581820354    0.31987417877577    0.01765614541952
H         8.60608784898325   -0.69311302497076   -0.15720966709547
C         7.69975849279901    0.66178947046172    1.23585528092261
C         7.49952759540446   -0.36905683130503    2.29814540710148
H         6.47462802260010   -0.73664328947199    2.24073426804821
H         7.63365409088165    0.08679748538124    3.28087800813551
H         8.18038200828817   -1.20537329645115    2.16001791325530
C         9.57113356096792    1.74881324893585    3.80426262499466
H         9.40010866297357    1.54810325176597    2.74608116919051
H        10.10209876737204    0.88100249916563    4.23725328740561
H        10.26939655145645    2.60316276084708    3.87050051000365
C         8.72376539962103    2.54003195642607    5.81831494085805
H         7.86565073327920    2.69623602239449    6.47337933764085
H         9.26792861304449    3.50248803575083    5.72283218759145
H         9.41206851632388    1.84312614986301    6.33107172516849

