38
CSD_code = BOPPIG | q = 0 | S = 0 | Stoichiometry = C13H20I2N2Ru | MND = 9
Ru        2.42786781358368   15.84795411394773    7.96931490656449
I         4.57866021614360   16.50891197132140    9.48977185906038
I         1.59587900036348   13.95720155212959    9.72622055028297
C         3.58025163763783   14.45399914487739    7.11001013511413
N         4.75587297269215   14.70660453568897    6.52994553573584
H         5.31200632274350   15.51308886586276    6.77158867252674
N         3.24427423869549   13.19831375415397    6.82783470833007
H         2.46728876126884   12.72834114765650    7.26795180689352
C         5.37248983160507   13.52782341127281    5.93879558713774
H         6.29450094377880   13.27111894901898    6.46774812198760
H         5.61142532652681   13.71018628157943    4.88738882344212
C         4.27764708218624   12.46223639095647    6.11716472241008
H         3.89257235324973   12.09718003366558    5.16021481177265
H         4.61623902667750   11.60681509622703    6.70722871218800
C         2.35842899656636   17.21155781434355    6.19017817364803
H         3.08588644932155   17.42285148414302    5.41221951384668
C         2.31873107278064   18.00317255289445    7.34918445883651
H         3.03855739544062   18.80955814379714    7.46486081694083
C         1.30141559136483   17.84635788263683    8.33094665387864
C         0.36322561103013   16.82895489502250    8.13082238755053
H        -0.44754935599235   16.68886072811434    8.83800482539825
C         0.40908974350605   15.99807319715880    6.97999492341617
H        -0.37064221814840   15.25713321410952    6.82996745905309
C         1.39331633220402   16.18531442958638    5.99323690402838
C         1.22856632784267   18.79195291303796    9.50739040907985
H         2.19855363318924   19.29656649777938    9.59785309699625
C         0.95201257389597   18.06655897795440   10.82525596426462
H        -0.05665508327741   17.65966991212743   10.85555296001592
H         1.06082731969715   18.75990543744378   11.65533862490659
H         1.65982261194389   17.25259033575048   10.97460857393141
C         0.15666857656606   19.85113362936864    9.22836268119754
H         0.37393893948571   20.39062912919446    8.30722802046685
H         0.12227371535281   20.56622887148593   10.04633987757044
H        -0.82455789206395   19.38817647053686    9.13442831346121
C         1.36404680962692   15.39969727550273    4.71491853682444
H         0.91480518378476   14.41920414938494    4.86604531861299
H         2.36589574297720   15.27021790624652    4.30748564612686
H         0.76566639569567   15.93595890403979    3.97549690648124

