43
CSD_code = BOPQAZ | q = 1 | S = 0 | Stoichiometry = C19H18ClN4Pd(1+) | MND = 4
Pd        4.63739048360487    7.83106694090958    6.77543425850677
Cl        6.04143015728184    7.86315737102166    5.10811605663024
N         2.01416036934733    6.81944980659915    6.96831238726666
N         2.64027303880811    6.11936730885768    5.01793236578656
N         3.43525735842840    7.95918787917003    8.26195572520189
N         5.88901507772284    8.94265764249710    8.12293605361220
C         3.05414261296563    6.83307550860600    6.06359190311009
C         1.36857616719119    5.65911297054174    5.23660156072018
H         0.84547918431923    5.06259176708560    4.51722450152399
C         0.96636599218963    6.09760248300046    6.45455554261645
H         0.04227980496461    5.95132504239892    6.97368634837408
C         2.20618034922142    7.46089340107978    8.19049782109250
C         1.30873165085896    7.61527167316495    9.25292720639716
H         0.31309821969006    7.20731843288021    9.19434817797422
C         1.72375974154859    8.30298241942505   10.37637756253342
H         1.04837057623577    8.43041447078252   11.20785376400225
C         3.02146346648082    8.85211540980484   10.44859744439930
C         3.85242690288706    8.64816832804877    9.33149838361332
C         5.17777226677786    9.17145195025378    9.26045150707339
C         5.67543766389013    9.90393760321545   10.35601882136454
C         6.98544089848823   10.40517857674214   10.24261379778970
H         7.41643047546616   10.97248011434773   11.05349749680519
C         7.69511187684837   10.16181722744948    9.08931221255009
H         8.70054114385034   10.53242421649044    8.97101355412093
C         7.11325131456256    9.42813158648214    8.04674250971059
H         7.65748174506416    9.23491479471899    7.12924196537924
C         3.56159739674477    9.59519058868619   11.53774957743905
H         2.94197471850766    9.75924709488477   12.40560989015220
C         4.82704810398993   10.09124864115294   11.48941493854160
H         5.22134584548657   10.65232180633158   12.32290243980964
C         3.48538692569021    5.76997112936292    3.89991760759146
H         4.04106050216186    6.66037681809058    3.59437178153533
H         2.85924681774602    5.41935315867780    3.07832466961791
C         4.47416978772649    4.68132035235055    4.33493383453019
H         3.91802432470505    3.84434704891927    4.76527124363443
H         5.12153523178791    5.10466897773050    5.11425516472119
C         5.32636834582410    4.17122783843655    3.17423929032733
H         5.96568906391033    3.37362204545052    3.55552745984512
H         4.67753904427994    3.73538127985944    2.41165886479344
C         6.19873638228035    5.25280163603841    2.54978931763670
H         5.60247122382031    5.97359752036148    1.99728121605962
H         6.90588909984493    4.80441267474798    1.85773913723854
H         6.75564864680075    5.78371646334462    3.31667463837172

