61
CSD_code = BOPSAD | q = 0 | S = 0 | Stoichiometry = C22H32N2O4Pd | MND = 4
C        -1.15780132401161   -1.22000963500235    9.14367869843539
H        -0.45423063337575   -1.43201509720905    9.94637596944265
C        -1.59923304447120   -2.20341752599167    8.27509262722493
H        -1.25331263122192   -3.21860766575570    8.38844709891842
C        -2.49013531702689   -1.86195477669089    7.26781579268583
H        -2.85681082649102   -2.60836804389537    6.57967444757245
C        -2.90038252508929   -0.54065018192402    7.16409132120366
H        -3.59207397618798   -0.23260996151560    6.39606088509616
C        -2.41328710832552    0.38606320275235    8.06984590594229
H        -2.71306627193733    1.43173870106095    8.04079165882281
C        -0.85634291391099    3.92261603695658   11.56607717903313
H        -1.52514573859573    4.14647289573871   10.73715489883089
C        -0.44364539187782    4.89665555467252   12.45874851843615
H        -0.77539002747088    5.91563951290206   12.33699190292291
C         0.39838949088417    4.54020678438317   13.50232107074770
H         0.73941214771013    5.27823908004396   14.21237554779621
C         0.79317194040605    3.21498058784035   13.61342237719935
H         1.44834448893981    2.89563494490273   14.40836691365066
C         0.34012626220102    2.29870472001765   12.67928443092508
H         0.63337364396507    1.25117016244984   12.71099915973636
C         1.49192527590709    1.43412318486731    9.36914940436374
C         2.78429348192840    1.83263071497943    8.66568203649255
H         3.49421770932740    1.01319651010518    8.78616032755619
H         2.57275324815688    1.97747793670514    7.60502417683323
C         3.38902222273338    3.12850076750631    9.24358579495871
C         2.50082036322179    4.32351094386143    8.89431916953203
H         2.49362897552058    4.49105766160567    7.81939835442697
H         2.86598205526291    5.22546745577698    9.38198270385934
H         1.47759227649285    4.14111061024752    9.21428888319484
C         3.51664294856337    3.00802650760903   10.76348191130385
H         4.01922749560005    3.88191783423555   11.17440640773344
H         4.08599282068086    2.12064795592176   11.02946614899434
H         2.53375668250251    2.92815013403928   11.22240892438622
C         4.77909945248364    3.33206005895553    8.63351001365353
H         4.71997138867171    3.37079239086773    7.54799169329758
H         5.44432042188624    2.51779405861629    8.91217107055505
H         5.21323879596523    4.26534721627762    8.98623728445284
C        -3.51405837173811    1.28348194038030   11.34835265020421
C        -4.80539395534200    0.88838320705548   12.05481889543506
H        -4.54244334505566    0.32301626016368   12.94999819402224
H        -5.33587257654228    1.79786171543392   12.34071243988467
C        -5.71669123699633    0.03287912989770   11.15099356727069
C        -6.24296252250394    0.88313695674790    9.99403463800844
H        -5.41908886200852    1.38164460878104    9.49058550379474
H        -6.92475912695454    1.64601792486199   10.36349366095774
H        -6.77545605938869    0.26324938301703    9.27535562838124
C        -6.89312744304727   -0.48033303959510   11.98654304272248
H        -6.54322498925054   -1.12950089770623   12.78631922878047
H        -7.58081453263823   -1.04646158902054   11.36162486363909
H        -7.43855075125582    0.34893883414661   12.43157240959476
C        -4.93086462640029   -1.16020132371846   10.60214370413293
H        -4.13127300926001   -0.82133671215771    9.94748739281357
H        -5.58491803184201   -1.81876595757613   10.03328725501555
H        -4.48366902800541   -1.72990351663977   11.41372693892165
N        -1.56419564850175    0.04609802376053    9.04101489545740
N        -0.46598479183456    2.65200977118674   11.67704287579821
O         1.48913191090596    0.52305664353429   10.20471537827194
O         0.44500832338539    2.08433468347100    9.05482836831691
O        -3.49996391704291    2.19741368650162   10.51410279131784
O        -2.47710255067606    0.61795128922986   11.65863391125364
Pd       -1.01217071695357    1.34942774037262   10.35713105576656

