97
CSD_code = BOPZOX | q = 0 | S = 0 | Stoichiometry = C40H50N4O2Zr | MND = 5
Zr        7.25969644175743    3.20873332787012    4.62247517644745
O         7.45332620078024    3.74002345276364    2.57507708536304
O         5.99268781008326    2.54086611800593    5.97329553561132
N         6.32642287132389    1.96031269138670    3.09717625666955
N         6.43058890053717    0.30801524854590    6.20159568773850
C         5.36583490937476    0.96893798646693    3.18882350524595
N         9.25294218817340    2.96899834111546    4.90755719561707
C         3.54225777931058    2.60382024630625    2.71917206729291
C         4.55008721430378    1.22186269063142    7.37864596883826
C         8.82761479129138    0.14653923748675    5.82635232530118
C         7.50086756053345    0.15029501984683    5.34931645561575
N         6.75980709875289    5.12405372551705    5.14402752792859
C         4.88573824927693   -1.30979428339295    3.85589315234325
C         3.10363327457778    0.18297572284733    3.19669956472315
H         2.04593597395345    0.36449891119469    3.06789306349694
C         8.24199272036210   -0.87665874959472    3.26438711154300
C         5.79890553780787   -0.28304008672088    3.64481560833413
C         3.99611037928632    1.23329039856802    3.01640952795453
C         5.74191557439110    1.35362050208415    6.43417331974726
C         9.13706136419671    0.58960460505610    7.19656081700508
C         4.07155158519025    3.69194100618253    3.41993221172960
H         4.78571394402603    3.54623707934274    4.23428216778579
C        10.24118010175925    0.19789706592921    9.30801816608772
H        10.86808218124781   -0.42462503984054    9.93031323795479
C         7.22818826584223   -0.35730446121784    4.05570132394941
C         6.74018358825060    2.76254642042834    2.16050495689991
C         9.94612934051153   -0.19595847369132    8.01581033017265
H        10.33277198961728   -1.13173239976146    7.63874284419335
C         3.54197698171086   -1.06929582883333    3.58874166554182
H         2.82215975489487   -1.86156533395656    3.73591845458615
C         6.56649462588032    2.61211767414600    0.65002389650113
C         8.63017079877382    1.78457809949958    7.70647226068055
H         8.02349597917596    2.42737843339768    7.06927343243213
C         9.54357892552926   -0.89030405946652    3.76177567490334
H        10.33606484765510   -1.30442708668556    3.15473218645953
C         9.82602206387046   -0.38587491274806    5.01505418357953
H        10.84377971539154   -0.39646962708938    5.37828245755870
C         2.58038017234894    2.84100828248505    1.73868686885358
H         2.15765621685961    2.00734433522821    1.19523580787880
C         3.66810396002767    4.98046906011946    3.11507717119698
H         4.09622806331989    5.80647482246286    3.66484012624375
C         4.20660091335930   -0.24642428639006    7.61197973153784
H         3.93602535027513   -0.72119114595885    6.67296079605971
H         3.37142770225377   -0.32832525979749    8.30452296251145
H         5.06398024628692   -0.76999157984934    8.02376262921875
C         5.35550849185663   -2.62133871951094    4.40344520126358
H         5.85541113150450   -2.45440471627971    5.35641742599467
H         6.07465226387245   -3.08595813475802    3.73057376653735
H         4.52139301587101   -3.30266931111173    4.55155599902315
C         2.17643964274050    4.13099767523402    1.44371767029449
H         1.43461544939399    4.29776937493672    0.67602730458258
C         9.73115237329248    1.38436802862789    9.80670502305849
H         9.95889114815286    1.69220444606488   10.81675585852631
C         7.98579083315267    2.47579667394687    0.07618098959702
H         8.59752304868827    3.31680696872688    0.39373317862643
H         7.94983097450824    2.45394946736612   -1.01111008880607
H         8.45236130019723    1.55794418863520    0.42970555077187
C         8.92754909329145    2.17444186934055    9.00057018426189
H         8.52959996103181    3.10357583649808    9.38438962451139
C        10.00384207224653    4.01265065929099    5.57515013037593
H        11.00051537522520    3.64047089833348    5.87576467028352
H         9.48284751225586    4.33741176182827    6.48273714038202
H        10.17194949265624    4.89346313095745    4.91996961814350
C         3.35798770349077    1.95414608039341    6.75594135117830
H         3.61823814518764    2.99114031152846    6.55062410382276
H         2.50742947477436    1.93233880770319    7.43425936765477
H         3.07152437791289    1.47714049240979    5.82036374404468
C         4.94665487313921    1.88946272415819    8.70085008790579
H         5.80279515675016    1.37924247602196    9.13742933690964
H         4.11788908770281    1.85256108446837    9.40519343627553
H         5.21391510891399    2.93071348330077    8.53047960204346
C         7.95912715542215   -1.44281659324137    1.90218575932281
H         6.88865836115027   -1.51252156372805    1.72261426685741
H         8.39596421912444   -2.43633098188118    1.80795725202445
H         8.40264564377944   -0.81541822421082    1.12793928254933
C         5.73226987011733    1.40355771723707    0.23340116933854
H         6.11154860921151    0.49216405754036    0.68763563870912
H         5.77867177568901    1.29295555345362   -0.84885862976800
H         4.69144622318148    1.52708916051428    0.51716840515619
C         2.72748043382859    5.20581758872522    2.12194354736439
H         2.41958781265530    6.21238759740804    1.88038900034445
C         9.95041436310239    2.58469877339855    3.69625251979800
H        10.10040001706899    3.44321992536469    3.00811261209655
H         9.39360696613670    1.80213632682123    3.16713114525704
H        10.95151423987616    2.18330984897302    3.93712883808107
C         5.92626747918584    3.90376261447072    0.12609744600596
H         4.91049681124390    4.00763091246167    0.50096473793248
H         5.89793375635346    3.89025460163121   -0.96164569796059
H         6.50543387115875    4.76359690797157    0.45472546143340
C         6.65636887054984    5.48296558537019    6.54310450575953
H         7.64030243016339    5.72741000342739    6.99916265295883
H         6.20160212521950    4.66186608954329    7.10669089172304
H         6.01904548995823    6.37785004578888    6.66973959749043
C         7.32730062983031    6.23079140658933    4.39975299842381
H         6.68117151935081    7.12510283696449    4.47728972951782
H         7.41437530133944    5.96262737943020    3.34295304025660
H         8.32698476337019    6.52880898196319    4.77824105472244

