36
CSD_code = BOQDUH | q = 0 | S = 0 | Stoichiometry = C12H15Cl3N4ORu | MND = 6
C         0.73356542855226    1.64533724836813    0.47355435606655
H         1.80927698118407    1.68782986765513    0.33114099013631
C        -0.12893278007935    1.28696111290178   -0.54885523331627
H         0.26725807107303    1.04061629898652   -1.51996687863295
C        -1.49218374317327    1.25412025693111   -0.30001695038904
H        -2.19039494709321    0.98064576774606   -1.07584634006894
C        -1.95173412154260    1.58009938748410    0.96465722919598
H        -3.00416560127275    1.56831780058452    1.19495036245995
C        -1.01892286039783    1.92804600195462    1.93262090407494
C        -2.56657141918005    2.32257118376249    3.87778381934649
H        -3.49467092276458    2.08136197494115    3.40461025121493
C        -2.30709519528193    2.71349536741754    5.14564396152948
H        -2.97380560650484    2.87323620532656    5.96809498876616
C        -0.36120947653899    2.63529770155150    4.09222641540825
C        -0.25400935742004    3.25956661237028    6.46672803489927
H        -0.96587739734597    3.71980664764902    7.15551659940431
H         0.51479046716644    3.99747534634019    6.21737525112504
C         0.38840155078087    2.02221634807542    7.10205837213155
H         0.96786981440270    1.49218894329902    6.33975518403371
H        -0.39502950075958    1.34520184455598    7.44965787515268
C         1.30029749497879    2.39723932393096    8.26707388003822
H         2.08226116928153    3.06961521902099    7.90942180696668
H         0.72300799133791    2.92802199423088    9.02794046656153
C         1.94297230724183    1.15991242590059    8.88009446182126
H         1.18355353108286    0.48056226913287    9.26046334716530
H         2.59775447923211    1.43916058591169    9.70110945717865
H         2.53118760681605    0.63273033220696    8.13359588576598
Cl        3.41134748581229    2.29073819765770    1.99405676025095
Cl        1.10978249070668    4.71243430473789    2.38039080735488
Cl        1.47501583469857    0.22822120805363    3.80128647698458
N         2.42179730667009    3.05699285962968    4.61404280800930
N         0.29882390621143    1.95895956932124    1.68956761441132
N        -1.35138646355738    2.27648174142257    3.23593618748154
N        -0.95262466599645    2.90558886167855    5.25518008456179
O         3.07728645522801    3.40565336024590    5.49455439053513
Ru        1.50476368644993    2.56069582901980    3.31629637238028

