71
CSD_code = BOQGOE | q = 0 | S = 0 | Stoichiometry = C27H38AgN5 | MND = 2
Ag        5.30383049567467    8.18232414081592    2.47562783970578
C         3.24139670000075    8.36599241129365    2.70305210417843
C         1.10699924461184    8.28850959219656    3.65303849058133
H         0.76633175426935    9.00595678619282    4.40641238419843
H         0.55383493719335    7.35513517453137    3.79817133839590
C         1.00097659888021    8.82904881777414    2.22350833439430
H         0.39022763205654    8.19557219170830    1.57234643380647
H         0.59979265410924    9.84664814443174    2.18101029357714
C         3.10625678576626    7.53874910030410    4.98722520765235
C         3.52258150610088    8.42816344376187    5.98170376074283
C         4.04676627806264    7.90327115659608    7.15492576720976
H         4.38435960763747    8.56760262520677    7.93492764264324
C         4.15459773364845    6.53757546530970    7.33231454390407
H         4.56471776343049    6.14542496613553    8.25092275333149
C         3.76170889781687    5.67216781489324    6.32980177896055
H         3.87908961863097    4.60915207484660    6.47091281081257
C         3.23194694397700    6.15530419612875    5.14127895392865
C         3.47448042642690    9.92228884984853    5.76539764709580
H         2.90967813433055   10.13351137172212    4.85231399834610
C         2.78535361819044   10.64918092515023    6.92123641521334
H         1.79968853003069   10.22657407600999    7.10793181330878
H         2.66958779346578   11.70384374515324    6.68049760885688
H         3.36774109528479   10.57493917941587    7.83526475210945
C         4.89870197502075   10.44411883162816    5.55851654829887
H         5.50614664540798   10.26781660972368    6.44228668027013
H         4.88539057035435   11.51182667767750    5.35212912270815
H         5.36994219829990    9.93026759607374    4.71301075353582
C         2.87120790002221    5.20745257345394    4.02193284704430
H         2.34868149633506    5.76306023456771    3.23727593161147
C         1.94749067745037    4.08383643367168    4.49468360107827
H         2.45596515309541    3.42409916049163    5.19207710329230
H         1.62180319363928    3.48838009268222    3.64438248684525
H         1.06751387125505    4.49188904154213    4.98879835418383
C         4.15601712569380    4.64256563690755    3.41061059682754
H         4.79586724380809    5.45848094389045    3.05556663399954
H         3.92255978753499    3.99343299344179    2.56981989416518
H         4.71458724460570    4.07105486245994    4.14720395643358
C         2.77134557203411    9.24816508558654    0.48399546413676
C         2.80946526290165    8.31999577198487   -0.56020811101982
C         3.15190082540972    8.77073976206162   -1.82759849696172
H         3.19813312926514    8.07362891497382   -2.64952943302788
C         3.44819066057262   10.10173319455960   -2.04864677653489
H         3.71204205912575   10.43626910199499   -3.04076356849574
C         3.43184406880605   11.00181221808948   -1.00087814856154
H         3.69453080482998   12.03214265904369   -1.18283586626082
C         3.09497946944728   10.59273541840406    0.28201901487143
C         2.55854442593680    6.85152516153197   -0.31135487301643
H         2.17180694824289    6.72180420282761    0.70405224019077
C         3.88706940985493    6.09600844981322   -0.40022279742200
H         4.31509340126677    6.18513121287741   -1.39523489489433
H         3.73976152269976    5.04177186502519   -0.17735057550361
H         4.60514083368939    6.50874623377528    0.31766686675686
C         1.52980682549864    6.27012332414307   -1.28239641571743
H         0.61196221251779    6.85518489742678   -1.26591730114938
H         1.29225414294665    5.24599825854120   -1.00239172936393
H         1.91094195681357    6.26065500121612   -2.29965340267119
C         3.15200237093522   11.56561873221572    1.43598898169056
H         2.72341025098494   11.09223166502138    2.32458290259025
C         4.61645478813425   11.88757614810194    1.74487163846865
H         5.16704156892218   10.96617911417094    1.96606653494819
H         4.68636040826858   12.54921672045771    2.60518535302993
H         5.09242007441310   12.36975709215815    0.89508982231766
C         2.35629842263599   12.84115129593224    1.15492137269251
H         2.80837555300011   13.41787405221424    0.35295888933393
H         2.32963221648784   13.46593699058178    2.04520803440539
H         1.33350035191323   12.60125052646645    0.86976031275943
N         2.54438445662481    8.05324509058262    3.78973920567931
N         2.39572027850056    8.81445107970679    1.78212396946105
N         7.25695030734016    8.00510783202924    2.22914514413355
N         8.42141905761868    7.89830726641272    2.22849994240954
N         9.54959653023746    7.79510772242955    2.20948951749169

