45
CSD_code = BOQHEW | q = 0 | S = 0 | Stoichiometry = C20H14F8PtS2 | MND = 6
Pt        2.91527955223626    3.51788602723304   11.47034268182552
S         4.10845465688282    2.00693384470912   10.09745257971238
S         1.77564441192697    4.33938795878379    9.56834260300423
C         4.30336593704574    3.22747307500319   13.16102038243612
H         5.25080302726442    2.95422127567871   12.69571460542979
C         3.31654479974618    2.26171010132711   13.21199894651137
H         3.55699079586833    1.26995400466028   12.83014348909556
C         2.07232349643728    2.29905215194722   14.06157644172660
H         2.31391114815091    1.93763811836230   15.06582789874949
H         1.36067222906454    1.59464114606586   13.62599308335876
C         1.39722950991491    3.68286123878272   14.15142755057108
H         0.34674081855791    3.52908093095650   14.40173913327873
H         1.83641258571532    4.27819309928779   14.95192366742548
C         1.47500929225862    4.45448694483727   12.85485394924040
H         0.54532509777871    4.51128911569841   12.28803337259503
C         2.46643864838454    5.36585262906438   12.54559042276734
H         2.24563556818704    6.11868088815450   11.78947326317029
C         3.68168039902470    5.68185019083212   13.37902707404112
H         3.40961337298765    6.41492845500760   14.14459530807710
H         4.41229102136315    6.15646684699499   12.72073987773457
C         4.34351727191924    4.45560085044254   14.04001640060912
H         5.38615362846187    4.70415566506057   14.24242954791774
H         3.87357660364335    4.22917745718043   14.99708491323995
C         2.84961720919536    1.38245956859884    9.07360604497217
C         3.11281158234362    1.09482262231057    7.73077940856641
C         2.12522501134415    0.58241394966690    6.90327214282044
C         0.84738749585361    0.34517636502175    7.37950566978831
H         0.08095813470592   -0.03946963189855    6.72902968891171
C         0.57596696066073    0.62496273592901    8.70785558171810
C         1.55866370516310    1.12398443131940    9.54384956427281
C         3.06941183156968    4.50439148941570    8.41864333508444
C         4.34704226861850    4.93877345790236    8.78400400114476
C         5.35844801547701    5.06293653467844    7.84845891250156
C         5.12990484130044    4.77991752321499    6.51272031420609
H         5.91869036451595    4.87308019557760    5.78633808416309
C         3.86568191734121    4.36274307416791    6.13374632755146
C         2.84953143289814    4.22288270415913    7.06678261908143
F         4.33944839168818    1.33797601988734    7.23933496030518
F         2.40702000620767    0.31412659733108    5.62373069248527
F        -0.65120276835204    0.39288002098023    9.19382689579467
F         1.27234408282421    1.38950416704028   10.84160373502663
F         4.59121542952496    5.22225210231877   10.08656024282690
F         6.57176565815947    5.47901789198124    8.23664615905505
F         3.62526479060973    4.08887575366233    4.84696025508187
F         1.63688976545254    3.79437041055806    6.67799817215418

