92
CSD_code = BOQHAS | q = 0 | S = 0 | Stoichiometry = C45H39CuN2OP2S2 | MND = 4
Cu       -0.48513005086215   13.73361085860165   16.44493085719648
P        -2.71889706844384   13.62965522395515   15.86813791906656
P         0.71921837040567   12.37672465205725   14.99146813837619
S        -0.09515524799963   12.79448718016672   18.65947190132299
S         0.09688978347048   15.99695698365425   16.45627863151179
N         2.28021561695775   12.10884515667087   19.66464025826288
N         2.43589168824115   13.21707516758341   17.77962637703396
H         2.19776424820077   13.73880345470604   16.92027489629067
C        -3.57472724824691   12.02754678303255   15.79969281785286
C         0.22257270713256   10.62365013471245   15.18829697501525
C         1.56413688038019   12.71954660357353   18.67868673185698
O         2.15022869359955   14.71946012916563   15.53706576484555
C        -0.03038195420297   12.79625220226614   13.37768056499325
C        -3.14028695792005   15.08521312635542   18.19098492244877
H        -2.08714134673534   14.90482159584099   18.36327026192943
C        -1.20712673181315   12.29354815849771   11.34143991462767
H        -1.66600204670609   11.56739018359774   10.68528019734658
C         2.46993593038608   12.11271253887459   14.54444905667586
C        -1.21427340728286   13.63556598934610   11.00144763414845
H        -1.67652003516287   13.95880149407266   10.08051933878817
C         0.74126784090832    9.59882297205664   14.39917454851400
H         1.47753915337410    9.82431478603207   13.63906489472066
C        -0.70006664444855   10.31510858065474   16.17958650263332
H        -1.08823072979914   11.10560400880123   16.80901185552762
C        -0.63085422840245   14.56217820888425   11.84857205779415
H        -0.63465825929448   15.61086207950883   11.59098890597394
C        -0.05740148793635   14.14648598109951   13.03497560236361
H         0.37380381103656   14.87240756111261   13.70797305049092
C         4.94249701501548   13.23056661091036   17.61172223639681
H         4.99959018929990   13.77687899306119   16.68470124737470
C        -3.74009469345276   14.57501408988207   17.04673284319223
C         3.62544373900587   12.22144539204828   19.39208934317332
C        -0.61436841572107   11.87068619422391   12.51852416699780
H        -0.61237292363819   10.81880068934370   12.76681378030408
C        -4.05498772750261   13.95123689059446   13.35190664323923
H        -4.46525441354666   12.95686198136445   13.45401283081375
C         4.43070137728978   12.58939584803908   13.24672265944679
H         4.90020180388126   13.09541768578011   12.41505823519191
C        -4.35911848707769   11.56762310943056   16.85279318439945
H        -4.54573254335386   12.20764506936930   17.70379563652934
C        -0.60689562039018    7.99903279683610   15.57753769084460
H        -0.92778354988129    6.97811379629253   15.72544590369246
C         2.26506373105489   17.08898028719077   15.22541216933645
H         1.54398568951814   17.72324488377627   14.71607092799023
H         3.09937622862190   16.85377688371621   14.56734727789123
H         2.63339133711787   17.63181299825785   16.09485791621116
C        -5.09067177634074   14.81186123765558   16.80327931604359
H        -5.55213714038873   14.41752747863858   15.90765189736888
C         4.75694264078324   11.78346272703150   20.05514467433433
H         4.68967278994953   11.23605992471161   20.98211429779604
C        -2.72426542663674   15.76943782949087   14.19155198690433
H        -2.07676441886748   16.17138533738065   14.96029529948769
C         3.71784904074967   12.93517737148393   18.18273253423506
C         0.32271700556584    8.29606536984626   14.59221198797194
H         0.72476742858855    7.50660344093810   13.97295631274775
C        -3.22476357686872   14.47653304754082   14.33359736790172
C         3.07866259996988   12.76423406411675   13.47994629893588
H         2.49441600750046   13.40742438999586   12.83790214630050
C        -3.05194222440519   16.52618288206907   13.08422287465461
H        -2.66602411357569   17.53037171684820   12.98481122855487
C        -3.29729254715148   11.17509334035924   14.73147478738375
H        -2.64550196622037   11.51675257162029   13.93846863257112
C        -4.64946355555233    9.46570289302671   15.72720698242828
H        -5.07449230048341    8.47313333718738   15.69661543361334
C        -4.89738415350862   10.29410482683602   16.80929749694594
H        -5.51219869784393    9.94537536137252   17.62664955312428
C        -3.87322614816162   15.99563783149269   12.10200496088276
H        -4.12796026701611   16.58349815879641   11.23205770583151
C        -4.37091790484268   14.71142821538333   12.23934481567196
H        -5.01771031503567   14.29810784667886   11.47842024918279
C        -1.11322270419249    9.00922543991699   16.37590713737845
H        -1.83013774226652    8.78476265345959   17.15179177965704
C         5.18490404731245   11.77362517029271   14.07390859714691
H         6.24118186990043   11.64300946843630   13.88900393006326
C         1.60279067906404   15.82045526239687   15.69289546479264
C         4.58311766792939   11.12813243270919   15.14216206743376
H         5.16781375659594   10.49534523690086   15.79453743444441
C         3.23360049301273   11.30135930372693   15.38004550145530
H         2.75977146584587   10.79636735355421   16.21303399140236
C         5.98024818081700   12.08012848492735   19.47565645481759
H         6.88551658801962   11.75431170552043   19.96476918906960
C        -3.84329654562143    9.90733611056457   14.68995461163294
H        -3.63151747909854    9.25706441118008   13.85328556427551
C         6.07083558669637   12.78865309722490   18.28118073578075
H         7.04560891150164   12.99830815222838   17.86823864860184
C        -5.23115113466553   16.05290690658380   18.85198330698461
H        -5.81484095766438   16.63068918461991   19.55394077857360
C        -3.88744715448311   15.82306101612515   19.09252228052932
H        -3.41905384430350   16.22114772178495   19.98041129643900
C        -5.83121620530633   15.54741431222568   17.70801667307251
H        -6.87971876134974   15.73099244488246   17.52158101827407
H         1.85354828703383   11.66555693512026   20.46057942655231

