109
CSD_code = BOQJIB | q = 0 | S = 0 | Stoichiometry = C43H60N3P2V | MND = 6
V        10.30004010191469    4.10514298430891    2.22522340177387
P        11.53596036713626    5.11305271084206    4.04394225123981
P         9.02780585843617    2.42727754633954    1.13227212501779
C        12.38483405747859    6.78144054415837    4.07255768645669
H        13.04504904990897    6.86689221330281    4.94056728605912
C        13.20412387105298    6.95416218137473    2.79971272887932
H        13.51384140940576    7.99247508824412    2.68001053868936
H        12.60502978637505    6.66581966066548    1.93616629565210
H        14.09729632781105    6.33331923178653    2.81747213225501
C        11.28835076941712    7.84164127777463    4.15319191777485
H        11.71850612693200    8.84307208735825    4.15785987347392
H        10.68537384455419    7.72299197361176    5.05188176976232
H        10.62142406393102    7.75296027650669    3.29608629201453
C        10.95212695810877    4.94333618949186    5.83159299906116
H         9.95103630599709    5.39463099535014    5.85619431125894
C        10.83851828042724    3.46323705898539    6.19564351595788
H        10.27885813975536    3.34682556276489    7.12367180464962
H        11.83019726807733    3.03533162433398    6.33763813762862
H        10.33581873838691    2.89265314096791    5.41904778386534
C        11.83546489254740    5.62912849811103    6.87218368496914
H        11.47200760596242    5.37387647971650    7.86756079820526
H        11.81771239960004    6.71210713064213    6.78473863279477
H        12.86295865435177    5.27810682006688    6.79438887123186
C        12.88494460711709    3.89958782366639    4.02224999921831
C        14.17560324090681    4.10795524450450    4.48733732000060
H        14.44435808087497    5.06238658112490    4.92150120202582
C        15.14329138231591    3.11683475029089    4.39930878671991
C        16.53400949804715    3.33882353293777    4.91644207060452
H        16.72231490291972    4.39631743747620    5.08934267405757
H        17.27178652260143    2.96318532132618    4.20910302136451
H        16.67833757073493    2.80866931831406    5.85905935688291
C        14.78984793586320    1.90248402405986    3.81466115280976
H        15.53947722402636    1.12977195835441    3.71202987875973
C        13.51350685945664    1.67031928315525    3.35398808158281
H        13.27459423534691    0.72903580214474    2.87848771946572
C        12.51539299519761    2.65484756698872    3.45713962430823
N        11.24955460461046    2.49138463043109    2.98140844433936
C        10.56582331546228    1.32962702255424    3.09773239340220
C        10.88241451258353    0.33604871272917    4.04861164816057
H        11.73526484723405    0.48147824606474    4.69670492890529
C        10.10899187100910   -0.79172407074212    4.19337949351834
H        10.38169093474483   -1.52566586465958    4.93982680033369
C         8.97562783168300   -1.00702088868469    3.41165089906634
C         8.15914671651215   -2.25578056301050    3.57042897391984
H         7.19354484294106   -2.15409543587131    3.07947136854342
H         7.99330482116766   -2.47727713545138    4.62386027021718
H         8.67778709699538   -3.10867879218567    3.12955175015030
C         8.63404464285821   -0.03117621564540    2.48828796291439
H         7.74496522182355   -0.17105393045024    1.88755505288081
C         9.38924783696205    1.12289870532052    2.33374842848322
C         9.57385130209309    1.56367425810266   -0.46292509605275
H         9.77092900378520    2.38073361729084   -1.16936442223423
C        10.88422187791627    0.83737068098678   -0.15989629454469
H        11.41076388264004    0.58668731679772   -1.08027443071048
H        10.68050698089485   -0.08599240052677    0.37975840858551
H        11.53950503558587    1.45284141870645    0.45601472517358
C         8.59717080120540    0.59129139154973   -1.11894066262070
H         9.09138141568214    0.11363465009241   -1.96521234767304
H         7.70747012933128    1.09066876008193   -1.49543451452572
H         8.30436677640562   -0.19247656941059   -0.42381304503205
C         7.16078615689993    2.41197200020158    0.95873441961887
H         6.88085586032668    1.45570310383138    0.50504096067513
C         6.41268281853237    2.54482041793061    2.28027181759333
H         5.35220103166362    2.34722637056769    2.12159932839696
H         6.50812430578091    3.55103089788652    2.68149102233595
H         6.78419969436595    1.83410472682069    3.01661420383680
C         6.78109620007311    3.55303830239375    0.01948053420720
H         5.70455989342066    3.57537734268241   -0.14690677438671
H         7.27650112505346    3.44606399105505   -0.94511233832051
H         7.08041369178946    4.50369342930462    0.46440194719518
C        10.85770681261365    5.10029720681721    0.71314637954469
C        10.79537586917838    6.14767594165339   -0.37857088066339
C        10.17701189822828    7.44906723322469    0.15391708452736
H         9.14804008512107    7.29035741877899    0.46821896548158
H        10.17516395870296    8.20388588469892   -0.63118407723167
H        10.74873867047098    7.83678105225667    0.99455818006893
C         9.86561585047078    5.59371561431508   -1.47118468099787
H         8.90824351820793    5.30750088400652   -1.03938706092666
H        10.30546806359209    4.72312597216761   -1.95200303077616
H         9.69611916918584    6.35347511076278   -2.23260094704939
C        12.16340957429072    6.47838675673126   -0.99515716037319
H        12.58540292013785    5.62319457294984   -1.51570429890938
H        12.87325457960357    6.79483107662410   -0.23319285084996
H        12.05150281191908    7.28987114304073   -1.71302057156097
N        11.72191331271547    4.18994260999762    0.89880006063628
C        12.85731244637257    3.75232012154067    0.24189623298576
C        14.10263774661964    3.80256724049675    0.87308219708706
H        14.17376511571960    4.22558797288978    1.86151656240201
C        15.23310437654612    3.32296152558907    0.24225485484790
H        16.18411133774615    3.37436762389891    0.75210940793463
C        15.15559837801695    2.78000211493426   -1.02917902869402
H        16.04052240359326    2.40057699209941   -1.51737406846680
C        13.92895892552561    2.73201926348461   -1.67049583524677
H        13.85475853921109    2.31772679356013   -2.66611872194190
C        12.79443578951651    3.21511829656836   -1.05034941038360
H        11.84267355193209    3.16775200432948   -1.55835820015562
N         8.98251104381162    3.88009059696944    3.45192841410089
H         8.82538914625556    3.05680441421498    4.02976464380178
C         8.20241483522465    4.91577645086196    3.82513151353168
C         8.23198790936806    6.08897052795170    3.04925556941617
H         8.83907437837155    6.06402863736275    2.14805361770114
C         7.49824760963270    7.19670220901247    3.41428322215639
H         7.53601353856231    8.09231283934243    2.80846973350522
C         6.70162504919345    7.17002116453382    4.55086960621217
H         6.12499433965988    8.03794240804782    4.83315353603644
C         6.64223215093677    6.01399559190182    5.31481927188430
H         6.01617301596933    5.98360008295749    6.19585452705333
C         7.37506152414282    4.89999482506123    4.96366120728671
H         7.32753274061004    4.00122377658369    5.56703445317655

