82
CSD_code = BOQJEY | q = 0 | S = 0 | Stoichiometry = C40H29F9P2PtS | MND = 4
Pt        5.32740464455991    1.78718679065135    3.34432013965989
P         3.11629082793301    1.93921539627920    2.73386271589938
P         6.10026803101632    3.18351693046903    1.67036864881359
S         4.75211756108293    0.23992453195728    5.09557120954879
F         4.60696665993912    3.24442525943372    5.51781876937719
F         7.48289088004486    3.40801289159833    5.19434714359402
F         5.87420432059134    0.47454439115419   10.02723405465740
F         7.14990996318159   -0.49734637084650    2.60806666915698
F         5.47930616360519   -0.86674736339644    7.70493316585121
F         9.73768255516775   -1.14654116090218    3.22889089556621
F         4.99154256787104    4.54912655859789    7.84958851251562
C         2.04842808662803    2.79325200461412    3.92488077378756
F        10.05603518592422    2.79182759208182    5.82551952562678
F        11.19338016460736    0.51063176081381    4.84399214528687
C         2.29248088448598    0.33502716613529    2.52082188014639
C         5.04825321094411    1.14700639119899    6.53695256536129
C         5.36536456621493    0.47090995167889    7.72550208894786
C         4.85212852037913    5.33481658048400    2.88691461782055
H         4.60173120704848    4.61489963959577    3.65282185843109
C         5.94377139550867    5.83942125842866    0.79910012908562
H         6.54215201041731    5.52179005470203   -0.04421476728318
C         7.91263712262573    3.28848034036668    1.59609943654221
C         0.97982678884596    2.72931600823190    6.07963041397715
H         0.71124222852769    2.18588066398135    6.97354119166461
C         3.15684730220447    1.91701529432456   -0.07466313466030
H         2.54697453093853    1.01059642601844   -0.10384749636963
H         2.95400638069797    2.47990322063308   -0.99087250518049
C         0.61863890887372    4.06006847327721    5.93929160335932
H         0.06681414010316    4.55568193741735    6.72391954998200
C         1.08329792903782   -2.12528850743302    2.12801072831174
H         0.60903080878385   -3.08397103678176    1.97945462559675
C         1.69239175574473    4.13084929620596    3.79250176936511
H         1.97960507576412    4.68768274013117    2.91227323209233
C         7.24078229438111    1.44204727545381    3.92244872501931
C         2.72796085507226    2.76192979881376    1.12352344056154
H         1.64990868758279    2.94396723457445    1.07354596186465
H         3.24198907058131    3.72842465024002    1.11041243293833
C         4.93119444694244    2.53892816961470    6.62649349459554
C         4.62666983387911    1.50030789619306   -0.05694233459019
H         4.81095667134990    0.88768644520224   -0.94216642361839
H         4.81669519611007    0.87077054706367    0.82216593903285
C         5.56646558843094    1.15460776747253    8.91150975914275
C         5.59315886460219    4.92275938350406    1.78692600344246
C         8.63680166887878    2.21762105745831    1.07628156651639
H         8.11682853534968    1.38246363322563    0.62636482168257
C         3.06683678466789   -0.81631759059260    2.43826610930464
H         4.14355625230600   -0.74921046040296    2.54659638450440
C         4.78969235448347    7.56334244809513    2.00692560320952
H         4.47770718427607    8.59379245282560    2.08899810678562
C         5.53821278300771    7.15600460448766    0.91204865416575
H         5.80946943801849    7.86931595178557    0.14779748327869
C         5.60323108732151    2.67981612845202   -0.04735932310671
H         5.16634531299135    3.54375650087603   -0.55438560752370
H         6.51749256516058    2.40669255215898   -0.57850673900057
C         0.90823054088062    0.25108655455010    2.40646691009481
H         0.30648161899612    1.14699395413088    2.48338031229026
C         0.97374027876838    4.75610904979204    4.79619736559260
H         0.69671192402765    5.79469271815217    4.68860762664976
C         7.86106651773608    0.29441849294415    3.44427750838544
C         8.01751419511666    2.25626965460881    4.73298833254188
C         5.45532286609324    2.53449634927905    8.97696423991673
H         5.61514008452482    3.05916699082144    9.90262238511183
C         2.46107560316071   -2.04456232230005    2.24350057130508
H         3.06394333096393   -2.93804250084424    2.18764232418496
C         9.91516598391146    0.79998611517159    4.56064319945378
C         8.58677446803074    4.33230749247671    2.22255430910703
H         8.02814077391699    5.14850948889521    2.65802317352058
C        10.68405830752626    3.25706994944212    1.76811748649770
H        11.76088252097402    3.24216409975697    1.84024027535636
C         9.17196096552098   -0.04369966840686    3.74252291436977
C        10.01655571880532    2.20793553280062    1.15576168957924
H        10.57229067138499    1.37444642019911    0.75267658568168
C         0.30819499749958   -0.97851431906806    2.21075239773263
H        -0.76664598940040   -1.04512068391385    2.12597052447679
C         5.13312260279198    3.21411472401447    7.81592208168852
C         4.45066766124362    6.65499584251375    2.99586590598830
H         3.87834851840183    6.97170662719662    3.85453120304014
C         9.96792232811138    4.31651967206773    2.30028266235165
H        10.48537241341518    5.12753892818918    2.79007726697100
C         1.69306151852030    2.09795235131011    5.07927990214807
H         1.98911224054068    1.06259316900339    5.18667984384809
C         9.33420948386718    1.95914375962131    5.05917478739263

