77
CSD_code = BOQJAU | q = 0 | S = 0 | Stoichiometry = C38H26F8P2PtS2 | MND = 4
Pt        8.20400359447774    0.28813012545300    3.77031134267254
S         9.76580130117591    1.92319672354529    4.54448543435479
P         6.77695329030408   -1.39304574987757    3.15113538462334
C         7.76170661248960   -2.96730541417030    3.14917880510946
H         7.08486143362994   -3.82718721446203    3.13457182835783
H         8.38819198995728   -2.99217603192091    2.25325398914614
C         9.68481351216765    3.14408708735344    3.31516035135283
C         9.79530470767398    4.49743785486887    3.65814096719274
C         9.75879514517811    5.48933187166860    2.69229198354185
C         9.60396636655534    5.17966292614010    1.35204481061388
H         9.56027539330899    5.95544938232269    0.60783701760665
C         9.49162543811164    3.84608221370069    0.99860726239449
C         9.54010768752245    2.84887616203496    1.95502504864916
C         5.84766406180870   -1.35624299757090    1.60130465076603
C         6.26267814152812   -2.01378471353165    0.44814085607141
H         7.14721883382430   -2.63348867688821    0.45819788469739
C         5.53717122960574   -1.87364628739878   -0.72190089015200
H         5.85772243837127   -2.38955606209996   -1.61499102266998
C         4.41012502225843   -1.06940651317549   -0.75358481851597
H         3.85229414871221   -0.95947400590450   -1.67139132673477
C         4.00464870673068   -0.39688348572565    0.38888040404641
H         3.13373224542086    0.24034498719798    0.36239102578806
C         4.72097960261559   -0.53473833846248    1.56142537068472
H         4.42123160736694   -0.00522903089159    2.45534109882413
C         5.55374544197865   -1.78112935869121    4.43284090577108
C         5.85072361980333   -1.39940524768726    5.73749578649200
H         6.75683069838266   -0.83708965973653    5.93152815273182
C         4.98361472358599   -1.71827885598744    6.76655624023118
H         5.21200246617090   -1.41320385714055    7.77664122623166
C         3.81939722144020   -2.41888164220047    6.49530894950523
H         3.13682634404668   -2.66201519839091    7.29592017259129
C         3.52417408152511   -2.80427864401839    5.19667201550610
H         2.61523488948757   -3.34927320493647    4.98851167666963
C         4.38841945314325   -2.49112554599070    4.16330275434018
H         4.15883187983757   -2.78763003643196    3.14911446588656
F         9.92055016847931    4.83663610272972    4.95460251206468
F         9.87298619272997    6.77446067096005    3.05842232193028
F         9.35737494047251    3.51669075227833   -0.29617030439520
F         9.43527682745314    1.55416961709897    1.57923758858974
P         9.63105423200997   -1.39320197896000    4.38960424562780
C         8.64621814542075   -2.96741501593638    4.39141118299442
H         9.32311705094481   -3.82725062191018    4.40579837881441
H         8.01978938868473   -2.99250279581316    5.28736783675958
C        10.56036867751475   -1.35638536628851    5.93942206580273
C        10.14541938502506   -2.01387482678004    7.09263093572674
H         9.26091317275760   -2.63362460164538    7.08261238815030
C        10.87094144953570   -1.87361373471069    8.26264723885894
H        10.55046428205935   -2.38951234126863    9.15577336238413
C        11.99793043229955   -1.06929073053854    8.29425987372587
H        12.55580553048796   -0.95928762555289    9.21203123676798
C        12.40339871819598   -0.39689182399543    7.15172081942550
H        13.27434585926130    0.24029318332278    7.17811330270248
C        11.68704226278956   -0.53485806565607    5.97920775884367
H        11.98676635672341   -0.00541576999017    5.08524691823155
C        10.85431260413077   -1.78117616431019    3.10792695288581
C        10.55732523067601   -1.39951686058859    1.80326261395774
H         9.65124562375942   -0.83715891317186    1.60922352236018
C        11.42441425297153   -1.71846250612482    0.77421427313203
H        11.19596768331224   -1.41352185155378   -0.23589247178149
C        12.58864217854842   -2.41902203413820    1.04549996189488
H        13.27116846105061   -2.66226361966017    0.24489394152138
C        12.88387490475596   -2.80434185500547    2.34415413888751
H        13.79280561215098   -3.34933689481191    2.55234400512476
C        12.01961977452502   -2.49117051338880    3.37749738406729
H        12.24921598706897   -2.78763511664550    4.39168911414774
S         6.64214259982057    1.92329331290666    2.99601481088897
C         6.72316865936913    3.14411315653184    4.22541902770732
C         6.61250505085442    4.49748943693705    3.88257664878831
C         6.64908606190129    5.48930216311653    4.84851616002096
C         6.80410262139216    5.17954648542516    6.18872132806186
H         6.84791565551695    5.95527240009861    6.93298258135129
C         6.91649437462653    3.84593839567031    6.54203600284076
C         6.86795077859365    2.84881866309035    5.58553499160094
F         6.48702579164723    4.83682888714489    2.58617366230556
F         6.53481491293368    6.77445639593056    4.48249355129231
F         7.05082874326799    3.51641360068623    7.83677004219893
F         6.97273603408074    1.55408484351930    5.96125828936411

