65
CSD_code = BOQKAU | q = 0 | S = 0 | Stoichiometry = C23H36Cl2NOPTi | MND = 8
Ti       -0.69088100370342    1.99619577883122   10.80903722314886
Cl        0.84106014183473    3.55173703348154   11.05684916508127
Cl        0.04046843875852    1.16151901557945    8.91115340205256
P        -2.98444124506262    3.82045678641695    9.38571471023535
N        -2.09064065201202    2.92449798493216   10.29737309704134
O        -4.07880519003030    3.19685475643212   13.83432246406669
C         0.33814452132781    0.24044240665215   12.04799582694833
H         1.31961160816571   -0.18078678539165   11.87042231307612
C        -0.87172869646822   -0.24302383891748   11.51169189611305
H        -0.98167689388400   -1.10932510553010   10.86892311495084
C        -1.92834878818471    0.51658013106123   12.06153837316702
H        -2.98299287698033    0.29581166536681   11.94315404183281
C        -1.36343688332656    1.48264890843440   12.93342104592861
H        -1.90488123656600    2.15499352961563   13.58786673495252
C         0.03700025628676    1.29058804401419   12.93045837397249
H         0.74342696333460    1.81454316649108   13.56272400109488
C        -1.98878596558287    5.24746870390252    8.62687930505544
C        -2.78210102519672    6.10552904955586    7.64777659047172
H        -2.19806634366741    6.98854762590586    7.39029320255557
H        -3.72483563608840    6.44026893740730    8.07583671264122
H        -2.98770139556669    5.56470813943948    6.72734109454823
C        -0.73827330383103    4.68008530673520    7.95908228750786
H        -0.00944037703332    5.47578401792276    7.81022380316691
H        -0.95462996243370    4.23856515617766    6.99074619416769
H        -0.28469146084837    3.91788626713715    8.59992059383621
C        -1.54841368360631    6.07789731651853    9.83481934653233
H        -0.86570547297830    6.86327987264061    9.51307437948458
H        -1.01945414509442    5.43862506686717   10.54494521269252
H        -2.38954810060093    6.54968268846666   10.33783030874708
C        -3.90452031008623    2.75754378136970    8.11022235398479
C        -2.92192170667325    2.33553563384969    7.02195372718080
H        -3.33873375951138    1.50917499252574    6.44682360046798
H        -1.98565817854699    2.00126074591622    7.47243848937643
H        -2.72181366062802    3.15179039149934    6.33230032567111
C        -5.12530518474672    3.43291436169400    7.49307632142302
H        -5.55937548105598    2.76791477105997    6.74696954312498
H        -4.86143010355115    4.36363656942695    7.00058398867488
H        -5.89167532610012    3.64191073292431    8.23519256621645
C        -4.32338550362501    1.51534606402486    8.89587455680662
H        -4.83325880658265    0.80903133027757    8.24236387830489
H        -4.99642965382036    1.77509503678452    9.71264775909618
H        -3.43130380354078    1.03517315698055    9.31143844721672
C        -4.32133299063736    4.64714842808619   10.40167862934496
H        -4.43496269584617    5.68003268466619   10.07366819949212
H        -5.27193648047163    4.14320965670577   10.22263528692094
C        -3.97941735364459    4.57817580576622   11.88859199042376
H        -2.89270142526260    4.54894909632866   12.02452750811278
H        -4.37370897962585    5.44408880952463   12.42299538609272
C        -4.54600874731857    3.30883460130754   12.51301961642358
H        -5.65000572006642    3.33378533991589   12.50559458342586
H        -4.21083111986571    2.44265697469881   11.91828150839807
C        -4.59609650679599    2.06754187142479   14.51272172226730
H        -4.41639928359345    1.15738115023336   13.92048859670737
H        -5.68597817738568    2.18108945576533   14.64186650878097
C        -3.91684122955102    1.96111196150889   15.85099785177120
C        -2.97586697448685    0.97044276247741   16.09568785984740
H        -2.73649673515770    0.25321564048017   15.32352968529192
C        -2.34076945173998    0.89801718021145   17.32363918369710
H        -1.61117274187075    0.12245100716636   17.50484741791475
C        -2.63605462996187    1.81824314740328   18.31435908285460
H        -2.13967068511755    1.76162955525107   19.27198658198675
C        -3.56817104535080    2.81381654087121   18.07318942521669
H        -3.79922883949862    3.53600002004552   18.84267218607595
C        -4.20544886650925    2.88429647080623   16.84780174447529
H        -4.92921943262766    3.66209264487313   16.65471907180596

