111
CSD_code = BOQPIG | q = 0 | S = 0 | Stoichiometry = C53H40Cl4N8O5Zn | MND = 5
Zn        1.80179845457640    3.63095343536331    2.25448413555981
Cl       -1.81150377739190    1.37711649272317    0.02649632112580
Cl        2.00492866561651    2.07434298535889   -2.15884567388973
Cl        5.22774322001371    5.77105987919888    4.56037099734977
Cl        1.41895030839099    0.93767888275676    1.08483264153914
O        -4.54738608643355   -0.25329181038818    2.08976855053180
O        -0.86093162413115    2.83901556861213   -4.51253217891896
O         7.94362595626322    7.65013048841425    2.68107892745723
O         3.08974408527074   -2.50007322015250    1.58919606376217
O         2.10535170646929    5.50147987746897    3.52784732487780
N         1.47662813698603    2.48178960176774    3.90727225320202
N        -0.18876234941322    3.88378697030562    2.04660206575896
N         2.13263315950304    4.61281948743108    0.52136961838162
N         3.79357525025537    3.25924367423936    2.39208167768283
N        -2.67815298402710    0.84097085664808    2.82300091822639
N        -0.49336164761238    3.62963645181755   -2.39741041450155
N         6.18240299831803    6.45809043501125    1.83722252331861
N         3.61471084750437   -0.46575738829635    2.49261206349571
C         2.38842724840840    1.67945679886308    4.51245734883558
C         1.75016194449291    0.87724017939429    5.52045908566830
C         0.43955039979814    1.21304795030158    5.50849610507171
C         0.27631487608879    2.19767988817976    4.47152705871935
C        -0.95898028698388    2.67708171853974    4.03712036125171
C        -1.15280925758326    3.48138869687780    2.91198500642244
C        -2.44241028786511    3.92898919932894    2.45296002980018
C        -2.23511778281354    4.57178848428433    1.28120816272720
C        -0.81780781928679    4.53809587914709    1.03860223612185
C        -0.19824146422630    5.08468171880397   -0.08241815949848
C         1.18225355737416    5.14907724009677   -0.28130708368225
C         1.79900066049774    5.87419662588668   -1.36078393001647
C         3.13506587955649    5.78848941228598   -1.16992909557269
C         3.33252763609143    4.98084587276302    0.00450058029049
C         4.57895111830000    4.62639405919626    0.51674369129930
C         4.77324541409283    3.77671014994039    1.60999020077020
C         6.04840176248839    3.23695341669651    1.99910096744696
C         5.80693232726261    2.34817768457632    2.99248126471059
C         4.39294891170764    2.38366627006125    3.23779470689307
C         3.73845947258187    1.58312022886692    4.17772469419926
C        -2.17060778980865    2.19158010198253    4.74059341171928
C        -2.46725016322833    2.62112811680371    6.02574576903476
C        -3.60508875094589    2.17493279489970    6.67524412017858
C        -4.45401144521647    1.28543121683429    6.03953973275766
C        -4.16997105101254    0.83367331610370    4.76278318283756
C        -3.03074032283161    1.28153758521475    4.10619021863456
C        -3.43028856717923    0.17692393230317    1.91904345861647
C        -2.70704326079503   -0.05781947859068    0.58907289580385
C        -1.06411880905620    5.59976855841212   -1.17191813719367
C        -1.74989916682028    6.79904436292388   -1.06066519028499
C        -2.54674332927484    7.25253198894088   -2.09834409012174
C        -2.66468464868019    6.50079900650621   -3.25478219836464
C        -1.99434746224212    5.29681497240272   -3.38288532327615
C        -1.19127094828842    4.84097019860523   -2.34565040031639
C        -0.34559801667941    2.76303877656872   -3.42108068732759
C         0.54802538309389    1.57357484061432   -3.05723485739710
C         5.79136143876885    5.16890251458950   -0.13994255242674
C         6.15026819645592    4.78794617237517   -1.42486770617228
C         7.29539589649228    5.29290993643873   -2.01618212319563
C         8.09080727979139    6.18946843513547   -1.32337931760417
C         7.74746193456325    6.58942329400805   -0.04363040499048
C         6.60112057040088    6.08198377530906    0.55272097322201
C         6.85362144349961    7.13752798019058    2.78768088640349
C         6.06591203177079    7.27371242172960    4.09772643132962
C         4.43445313244818    0.33617339927842    4.58786766548739
C         5.13128486097763    0.15130286671231    5.76675374255868
C         5.69535783896091   -1.08235889397454    6.05555506913099
C         5.55225526120667   -2.13478703212883    5.16837840560366
C         4.86176667010851   -1.96729057580762    3.97906350699270
C         4.30800602096107   -0.73226768520087    3.68073913893797
C         3.03304849036587   -1.29291279691307    1.60306950764006
C         2.28451380717241   -0.52613213720384    0.50079155396295
C         1.20607170889569    5.82518328525313    4.57007706953525
H         2.99841597456627    5.46528936095223    3.90029467956192
H        -1.77582279143142    1.18033255296216    2.50602833042285
H         0.02509571689662    3.42416280276422   -1.54908688934282
H         5.28889079342447    6.05339640728050    2.09981934699105
H         3.41791995482789    0.52105820831454    2.36285648861643
H         2.25161500487311    0.16590228672475    6.14721753937208
H        -0.35253917904572    0.82210889966647    6.11668438090784
H        -3.37116220211629    3.76719959842111    2.96508294899304
H        -2.95985937348805    5.02893195742014    0.63668805318963
H         1.26897586555723    6.39444181654235   -2.13498283419229
H         3.91818990753448    6.22306768821805   -1.75953764847295
H         6.98847499055392    3.48357753859519    1.54488363512259
H         6.50746431808193    1.73833100013174    3.52901565552780
H        -1.79988713600011    3.31989402418471    6.50909340194185
H        -3.82723495322676    2.52260996976500    7.67268107564608
H        -5.34358719514861    0.93434554003306    6.53970308170545
H        -4.82758403987366    0.13948901059158    4.26720489166648
H        -3.44225961207093   -0.31737644666647   -0.17191116424650
H        -1.98596751526094   -0.86957601110017    0.70173961674200
H        -1.64560951315815    7.37959066260300   -0.15560605443127
H        -3.07223134890107    8.19060029361580   -2.00260239153890
H        -3.28494917970547    6.85053226653125   -4.06590589560584
H        -2.08506089740464    4.70734385903860   -4.27990164525111
H         0.86536820009731    1.06943468967584   -3.96902627314659
H        -0.00464303287495    0.88241328299688   -2.41833997629506
H         5.52797243780131    4.07982640120765   -1.95212470457981
H         7.56601562854292    4.98380191064055   -3.01429059491420
H         8.98533371208566    6.58463967677681   -1.77985597607750
H         8.36301952345172    7.28734577363132    0.49879055554151
H         5.30989549384674    8.05394365489289    3.99529689642628
H         6.75670019884576    7.53214705512232    4.89994445589565
H         5.22694608468375    0.97408404489911    6.46015677908883
H         6.23971185792678   -1.22020859856718    6.97749732793892
H         5.98352972890305   -3.09678192451306    5.39972966073747
H         4.74129217973621   -2.78300172480823    3.28523875610724
H         1.55359902448543   -1.19202261286550    0.04487859736916
H         2.99690360395960   -0.19501034038229   -0.25681396731919
H         1.44998956289398    6.80146111706794    4.99940385291042
H         1.21736719640420    5.06873635381528    5.35921720031959
H         0.21037414568833    5.86344856120397    4.13390400868507

