91
CSD_code = BOQPAZ | q = 0 | S = 0 | Stoichiometry = C36H44N4NiO6 | MND = 4
Ni       -1.20916915021614   -1.83736256498020    3.67003189025274
O        -2.16106162203092   -1.35885782926675    2.15628065332584
O        -2.14912481472516   -3.43496639361561    3.70887203023169
O         3.47047599257332    2.72177483323091    5.44638874283352
O         3.30391066546669    2.24189460210315    7.54060656152558
O         4.58502476128218   -0.09132055431858    7.56564068029054
O         3.21637626445592   -1.25352550558849    8.75720777571935
N        -0.20074872583293   -0.27697229756392    3.61061212084051
N        -0.29657832721219   -2.26365658101818    5.22885052380037
N         3.14005978119943    2.00805784727506    6.36622188572705
N         3.49713398120092   -0.55991450968245    7.80595077711896
C        -2.08409660278709   -0.34390051826787    1.38526704147832
C        -3.00258331817656   -0.17316074191017    0.28996005351328
C        -2.83748870003169    0.89800020849918   -0.54312174261678
C        -1.82316869667394    1.87654291421242   -0.40421257678466
C        -0.96728013753735    1.74824094097473    0.64738585821685
C        -1.07962574877211    0.67035686915189    1.56203474624631
C        -0.20244744908501    0.62599766910369    2.64851010074580
C         0.68138921784275   -0.19069381527351    4.67115551354638
C         1.53500056849515    0.87366379959322    4.95765547188506
C         2.40470239769964    0.80918213936617    6.03245243650452
C         2.45888939970388   -0.34577479404227    6.82366504501828
C         1.57703432777337   -1.38684805611642    6.59047993170977
C         0.65322712678171   -1.31288817778743    5.54923689462025
C        -0.56029266033103   -3.26566691290508    6.04585993400186
C        -1.43043282731602   -4.32791039861014    5.78878858849220
C        -1.55572876270801   -5.35133107967486    6.76220530596975
C        -2.33455148921753   -6.44652802855807    6.54068916688611
C        -2.99259582442569   -6.53686507679886    5.28980567114772
C        -2.93025620238872   -5.58684324961045    4.30882309933608
C        -2.16361117553038   -4.39303599654752    4.55284082035345
C        -4.12612964138966   -1.18125655473562    0.09996550546603
C        -3.51851060631655   -2.57058997872198   -0.12863813692480
C        -5.00215755767650   -1.18079365538478    1.36020688105025
C        -5.02356729747889   -0.85363759094502   -1.09782029689458
C        -1.75614996566355    3.00865559376982   -1.41491843209644
C        -0.60190069449888    3.97353992549578   -1.13149731037559
C        -1.55376242883211    2.41798702111549   -2.81732272996552
C        -3.06882179595906    3.80326048676486   -1.36686740786533
C        -2.51845173785757   -7.57004066348604    7.54642517024727
C        -2.00089648510454   -8.88125019885193    6.93871329809262
C        -1.75835406170389   -7.31300778014472    8.85019742499608
C        -4.01111263945960   -7.70210921961241    7.88036576664703
C        -3.64284196507721   -5.75190185184401    2.97480870602378
C        -2.60153030878231   -5.68189878007306    1.84931577339875
C        -4.67385167097798   -4.62801992281293    2.81767828375447
C        -4.37635760887487   -7.09157837936546    2.85398191201952
H        -2.92754771601191   -2.87251027300543    0.72853354710253
H        -3.52132417373173    1.01669438658277   -1.36575383956450
H        -0.18242887886075    2.46482425008843    0.82693945657051
H         0.53701697223518    1.42176970451282    2.68611736859698
H         1.53431015256922    1.78649157188841    4.38270410537066
H         1.66589561452509   -2.25745258872318    7.22144408857498
H        -0.06014400134939   -3.28901448595625    7.01094050211390
H        -1.00059690615028   -5.22879054633660    7.67790450878984
H        -3.57973505721433   -7.42074624137763    5.10951876058220
H        -4.30906067473022   -3.30098032776125   -0.28166676552919
H        -2.88013901996412   -2.56122727954784   -1.01013882197048
H        -5.44353184148170   -0.19708729190595    1.50993364688994
H        -4.41568148592042   -1.43469826068568    2.23749059509958
H        -5.80384397919037   -1.90807285392565    1.25813483124664
H        -5.50246873729616    0.11633597740828   -0.98262534561515
H        -4.46304749672015   -0.87164552760790   -2.02999793131104
H        -5.80767554729952   -1.60453350020284   -1.16709279810854
H        -0.71624080534445    4.44574294594224   -0.15867191050802
H        -0.59183275534877    4.75803491664730   -1.88492886682303
H         0.35556706381640    3.45950131373755   -1.16969040522799
H        -1.47427619338276    3.21760922112320   -3.55028199038723
H        -0.63947647925417    1.82926117983461   -2.84859201281778
H        -2.38218153607445    1.77680682670626   -3.10497595104253
H        -3.22887040763154    4.20460056116332   -0.36844128868228
H        -3.02823920966904    4.63254241208756   -2.06940062178193
H        -3.92194728669165    3.18230031439078   -1.62524486703412
H        -2.10695778055464   -9.69161183703855    7.65636985023732
H        -0.94867454956634   -8.78581883476904    6.67926549370889
H        -2.55027775899164   -9.15022870297433    6.04087142058011
H        -0.68742621215858   -7.24839013803528    8.67319120849202
H        -2.09846913407624   -6.39645151634735    9.32636226720848
H        -1.93409112994883   -8.13511459531889    9.54044584543787
H        -4.39004956131835   -6.76547901347701    8.28373400226123
H        -4.59690069498121   -7.95660599287557    7.00159100584464
H        -4.15900069466449   -8.48251657633937    8.62337094260711
H        -2.07278758999047   -4.73423301005691    1.87063306465291
H        -3.08919461476628   -5.78264832553201    0.88278626006885
H        -1.87707886211676   -6.48710725983528    1.95750619096153
H        -4.18428838213905   -3.66109080454086    2.83495140952462
H        -5.20017588354383   -4.73637453380982    1.87260120679780
H        -5.40131176762915   -4.66862260959943    3.62623373079980
H        -5.16296364472384   -7.18244879679662    3.59989544491296
H        -3.68987018022656   -7.93019839480022    2.94861970815839
H        -4.84156695427106   -7.15206265506373    1.87247354550696

