63
CSD_code = BOQQOQ | q = 0 | S = 0 | Stoichiometry = C21H36Cl2N3Rh | MND = 8
Rh        3.03554399082860    2.74479210104576    2.29487059037820
Cl        3.57927427604427    4.87683380781452    3.05514616511935
Cl        0.84409146292261    3.05836688384351    2.96192442569325
N         3.29291988985257    2.04289956194499    4.30964712337955
H         2.36126474796818    1.67735251040553    4.50547377536106
N         2.95355014344309    3.30878207049643    6.33435935709759
N         4.97134154596714    3.24074289966071    5.45769806100913
C         3.68497575939966    2.84666230473618    5.27971523047072
C         3.80812784043216    4.00231416507786    7.17973156758290
C         5.05348503527252    3.95364847529196    6.64098698132838
C         3.39723138000461    4.60788396139866    8.47557669934920
H         3.16628651668625    3.83534348631435    9.20912715287480
H         2.52610078279550    5.24592412493899    8.35846794490465
H         4.20705305042181    5.21811319996034    8.86382222441862
C         6.30606271909772    4.54205059818459    7.18865551858529
H         6.18270536096997    4.73858244924326    8.25009003629697
H         6.53982458764613    5.48325461150719    6.69262084089146
H         7.14705069984402    3.86511663154907    7.06903366508558
C         1.49718612130411    3.30912602643075    6.35085346968836
H         1.18468802313398    2.65844637222412    5.52760392050230
C         0.92435502779529    2.73520800478720    7.64439045207803
H         1.45768757052114    1.83032093069607    7.92844540922938
H        -0.12018411274404    2.48186501007375    7.48382449452609
H         0.97566817326789    3.44697835723201    8.46202248029129
C         0.95866053766829    4.69904196527272    6.01756726763624
H         1.14315518226340    5.41693662046988    6.81147401160427
H        -0.11131860262157    4.63396109000930    5.84358675604260
H         1.42913640981036    5.05491178321211    5.10418596053817
C         6.01454231151743    2.91733211406335    4.50134941873887
H         5.46711510229336    2.57596662871904    3.61450650263159
C         6.87625805835424    1.76418217924000    5.01552806357528
H         7.43585413119411    2.04870812342335    5.90307294810474
H         7.58571010201900    1.46526553190274    4.24849924788520
H         6.24878259456322    0.91093590298128    5.26137822909236
C         6.83770998819085    4.13536280593609    4.09655667999701
H         6.16306562890176    4.95259340640085    3.85451041736827
H         7.41896553371115    3.89264670696984    3.21102129923953
H         7.52713430492550    4.44584585651847    4.87418943176316
C         4.34211438590005    1.25542146966017    1.26252804104296
C         2.95069071418897    0.96325747356195    1.04783343098045
C         2.37987339639907    2.04828943313481    0.30513393795648
C         3.37675897784265    3.05720128784486    0.17050336102211
C         4.60381203105201    2.55034139960497    0.74566306063703
C         5.32465882719655    0.28078860861146    1.82944962229979
H         6.31011163033738    0.72684250299357    1.93308506166175
H         5.40160070676435   -0.57971582059665    1.16290893399367
H         5.00098795623724   -0.07442850849923    2.80624105186601
C         2.28611888572579   -0.35405923423324    1.29224823030262
H         2.37963579250833   -0.98516759802738    0.40535511583140
H         1.22803734103245   -0.21512492170223    1.50262687158570
H         2.74439997201440   -0.87035189830651    2.13237573374241
C         1.00643900238841    2.04336246982936   -0.28218323863967
H         0.80399673085699    2.96939350943147   -0.81373134314070
H         0.25131780294071    1.92282959299815    0.49435329381396
H         0.91657942269096    1.20853553863750   -0.97868159627713
C         3.28518141946758    4.32231220685902   -0.62290221206372
H         3.72442054975310    4.16840299769670   -1.61112130178770
H         3.82819424374095    5.12411381382270   -0.12594348619501
H         2.25136284250521    4.63623108066254   -0.74470300632020
C         5.92229867057077    3.24324322723810    0.61261049026410
H         6.71599163846023    2.68085978300295    1.09777115204763
H         5.87787214263550    4.23764658566231    1.05420634442084
H         6.16918303953456    3.35247573959462   -0.44464136982251

