75
CSD_code = BOQRIL | q = 0 | S = 0 | Stoichiometry = C26H25F18N3O2W | MND = 4
W         5.45744543078684    1.01905451971638    8.81328879278915
O         6.23339584934712   -0.23432945960846   10.41289268510644
O         4.95481476642556    1.07892978615612    6.71968240291018
N         3.76613407022521    1.13202992422360    9.56266884263006
N         1.63268376822681    2.18554367567549    9.53586167834198
N         2.40080110003726    1.46300229839330   11.48157683886903
F         8.47774521104247    0.68768322737972    9.35953717984053
F         8.71480141632678    0.39938718363782   11.47437721155979
F         9.69739075507419   -0.93674731573177   10.11349156262924
F         6.13288932976092   -2.80917549604689   11.49232562455221
F         8.28568843330881   -2.90120217861551   11.50450316975061
F         7.25280745106262   -1.41565719938094   12.66435147725537
F         8.21778712880614   -1.71350093522782    8.15071163120181
F         7.03928395198033   -3.20953465455619    9.12521291814824
F         6.08064175425091   -1.47849979728146    8.27475612217240
F         6.21343773761911    3.12550004369290    4.09498587478654
F         4.14073342660836    2.63283236818356    4.38844107835312
F         5.21930103379413    3.66101541863565    5.92748660491219
F         8.09761635392521    1.06164782693489    5.17872403127815
F         7.56278952844689    2.61805193137201    6.55617696751953
F         7.34240845820807    0.56102561821212    7.14524634270214
F         4.27797267891269   -0.06603902230002    4.40349039421346
F         6.11168134814059   -0.91220466846613    5.12930649124492
F         6.13331968290803    0.43569455231771    3.44705972864346
C         6.15786456863913    2.71764175857273    9.20105601267350
C         6.73988285189210    3.90950952209615    9.59795283071760
C         7.45990582604101    3.96329978856580   10.81242666625284
H         7.52142056469893    3.06538764162172   11.41077726044509
C         8.06770790060900    5.13031766428054   11.21521300588230
H         8.61769534975264    5.15360781119669   12.14531870393000
C         7.98125620594131    6.27644894251949   10.43546208038225
H         8.46269992831717    7.18829869870535   10.75606579458017
C         7.27360266498893    6.24298801509215    9.24154130647722
H         7.20539274769384    7.13401271431242    8.63369702010526
C         6.65922738174895    5.08423991793519    8.82173826722916
H         6.10952507235784    5.04999252093208    7.89409328227307
C         2.70213913529716    1.57055050339398   10.14413336897700
C         0.68833334481695    2.45311647070729   10.50105615892020
H        -0.24287639701752    2.92912308203259   10.28569629116157
C         1.15402543212735    2.00976408585086   11.68371390722407
H         0.68441047104007    2.04549820833851   12.64200314513452
C         1.58482978231857    2.55936588507902    8.12079351911494
C         2.70418405621408    3.56877586547717    7.85284371137863
H         2.59127517288524    4.43876383799951    8.49511245366364
H         2.66708363644304    3.89294491145295    6.81749392203934
H         3.68270109962969    3.11334067228621    8.05094986039274
C         0.23180081509766    3.19253045640066    7.79378224113804
H        -0.58509036968677    2.50540933818865    8.00084064914523
H         0.20753411007115    3.43567566617427    6.73542173211049
H         0.08294923517568    4.11270633005383    8.35283274401068
C         1.77581987177847    1.30415093264665    7.26561314105898
H         2.76374896427227    0.87452190300813    7.44035174250428
H         1.69884192986951    1.55951031869093    6.21267740800320
H         1.01667595719965    0.56191631931017    7.50317949518110
C         3.28124437829256    0.86411130760697   12.48746296201139
C         2.60736059033153    0.90135849395259   13.85952695191630
H         2.41136337136004    1.92365237561053   14.17256180553123
H         3.27535666207566    0.44958220549961   14.58721429980537
H         1.67812209551763    0.33657633840037   13.85934224387447
C         4.58882233897215    1.65963274862199   12.53738217784128
H         5.09805477931932    1.62248104150838   11.56681976293045
H         5.24656377107804    1.23522303897425   13.29014036836120
H         4.38989834274208    2.69901042931625   12.78705639431894
C         3.54933209312764   -0.58947606111979   12.09189429676269
H         2.61587097654831   -1.14166116737373   12.00444925452937
H         4.17171426556739   -1.06876864203850   12.84125654250483
H         4.07377635782672   -0.61903658264771   11.13706872164733
C         7.25866917894793   -1.07859550128241   10.30462190005060
C         8.57852942706824   -0.24794600335873   10.32417661616704
C         7.24104260828564   -2.06896365999598   11.50742868764322
C         7.17678067750348   -1.90068653693504    8.95914420480567
C         5.71794758892282    1.35728897629148    5.65555250260435
C         5.32160863939750    2.71205682457297    4.99968303507036
C         7.21376726930695    1.42472716029219    6.09614360818499
C         5.56003661240206    0.19831578389695    4.62628028998610

