74
CSD_code = BOQRAD | q = 0 | S = 0 | Stoichiometry = C27H29ClF12O4W | MND = 6
W         2.48859432985843    7.96754721447061    2.43016156499981
Cl        2.77039164254498    9.98516428826284    1.27430205746496
F         3.58890547561169    3.05647023293729    1.76968818568114
F         2.60903983800086    4.54052532069015    0.58565377010193
F         4.33875784031849    5.07383062393881    1.72570663181739
F         1.41320517482340    2.59510794257649    3.34650412922090
F         0.38462023233986    3.82250533310444    1.91264340674186
F         0.26573890509104    4.28917264574287    4.00052801270964
F        -0.20527331453637   11.68036786453783    5.04375179667467
F        -1.25113053182071   10.22532837735002    3.86742657829913
F         0.54667304550887   11.11936867051372    3.10690666462274
F         2.01395132608580   11.02659586757955    6.25617420469730
F         2.78516551684045    9.04404650143017    5.99993312147345
F         2.91450716047496   10.47305117065845    4.38484085405648
O         1.82074175848555    6.02311787952008    2.55175456583253
O         1.12817125475528    8.68087349323914    3.73474011840766
O         0.53669125972329    7.91519898757060    1.13286554695841
O         3.18324924989624    7.21924113284339    0.38225653180572
C         4.19253590151974    7.97023633670505    3.19873842944704
C         5.57598258819204    8.11609087268968    3.65389973037758
C         6.33023599874943    6.77882936750753    3.56605873937836
H         5.86474509969458    6.04595790057202    4.22010373427531
H         7.36573119872698    6.91597362268498    3.87151770229056
H         6.31374213507442    6.38934283683153    2.55223285567636
C         6.26244561661766    9.16949558634973    2.76083029650152
H         6.45367476617223    8.77172304296183    1.76825203667151
H         7.20873752602487    9.47464571868250    3.20230412892460
H         5.61688813581685   10.03945733622059    2.66457130896229
C         5.63298092508128    8.60553323709792    5.11011989502929
H         5.19981675869582    9.59740414908926    5.18709401603476
H         6.66837376091874    8.65225729170189    5.44299645792894
H         5.08471044906931    7.92779909479283    5.75747709037897
C         2.31820124476872    4.81224434621428    2.93343862329811
C         3.21790807292601    4.34053886474443    1.76687481717362
C         1.10033529177558    3.85953086962469    3.04715642972107
C         3.05431138829907    4.79395553398056    4.27017292169358
C         2.82056095914058    5.83972278875649    5.15404611464466
H         2.16809704661207    6.65403420298238    4.85666524869244
C         3.42595658811096    5.84578303998828    6.39843520738700
H         3.22928266795433    6.66056602031572    7.07704986402089
C         4.27418185160583    4.81345775768735    6.76102259117384
H         4.75303812972264    4.81940328161410    7.72844917396252
C         4.50277845148646    3.76875697336339    5.88189735713997
H         5.15790641243916    2.95789476222278    6.16112049508672
C         3.89042831117773    3.74766647995189    4.63951766735434
H         4.06925594242974    2.91208511582753    3.98276144662568
C         0.80589621538264    9.47221830231950    4.79701297886923
C        -0.02549629566622   10.64726090506327    4.21575267839217
C         2.12619542992933   10.02676887976454    5.37631687600613
C         0.00280658564734    8.75026269401818    5.87574977883723
C        -0.37305674096064    9.39191177701501    7.04899273465758
H        -0.10852849832990   10.42227719013682    7.22717568101944
C        -1.10060196452257    8.69691022088121    8.00006277649281
H        -1.39232517440063    9.19652536357412    8.91102833227699
C        -1.45212094420336    7.37411492918503    7.78869410809118
H        -2.01665757317120    6.83990073513634    8.53785430401219
C        -1.08271145213088    6.74036314041340    6.61496383673028
H        -1.35139803027300    5.71081483855755    6.43665202422308
C        -0.36100433314118    7.42851217046660    5.65711675470167
H        -0.07661927967675    6.94238322112939    4.73415394633210
C         0.81101975258390    7.15275715598672   -0.02422330789159
H         0.04604246525700    7.35577933325541   -0.79048519994685
H         0.79038988017424    6.07921024736647    0.21519272465494
C         2.17552825063212    7.54057423387153   -0.57426194856890
H         2.36616843041456    6.97646035621089   -1.49839460268432
H         2.20482368537702    8.62439704047088   -0.77534189294492
C        -0.71916571827730    7.57515790400078    1.68128677211676
H        -1.51421219238588    7.75119412650122    0.94723070595221
H        -0.88315498442305    8.21417190484811    2.54538736236008
H        -0.74230962034162    6.52367453893174    1.98940863675593
C         4.47473702365097    7.54927990892062   -0.11929080202007
H         4.64014007499359    7.03953737877880   -1.07555998466276
H         5.19083567914932    7.19760592052889    0.62164926570862
H         4.56273594590516    8.63587560452923   -0.24236666088518

