69
CSD_code = BOQTOR | q = 0 | S = 0 | Stoichiometry = C33H29BrCl2HgOP2 | MND = 4
Hg        4.95436902362799    4.66031768538968    1.01496655486911
Br        6.28207300584783    6.68017303921839    0.73244239637862
Cl        5.06853028991404    3.25919819285202    3.00505319578565
Cl        3.27235213967018    3.76058873403233   -0.41115598528196
P         1.29520780752079    3.57269538557297    3.89970739505519
P         2.86878346205909    5.87578346448919    2.60175781387303
O         0.10856136246875    1.50779527050472    3.28896605836754
C         1.88089377490147    2.69767567568372    2.42306404516722
H         1.84815609403010    3.31198598561415    1.51181269383772
H         2.94492962971041    2.45187884303737    2.57759584989747
C         0.97295249902974    1.50544384185330    2.41571130164306
C         1.14642526537807    0.43255181260503    1.44772924779855
C         0.36716236545617   -0.72282046815507    1.58233919738410
H        -0.34132279167287   -0.77479766632862    2.39566815752775
C         0.51508052362651   -1.76802822892313    0.69508663294230
H        -0.08440238130640   -2.65937676424984    0.80402363277601
C         1.43611362709806   -1.67138842166546   -0.33857697759015
H         1.55215603742207   -2.49023010578306   -1.03319683071508
C         2.20488660998471   -0.52645561864594   -0.48418781221975
H         2.91433600785592   -0.45264896730745   -1.29409345034995
C         2.06981034694132    0.52526668045252    0.40189338199788
H         2.65946996767196    1.41812091514609    0.26690594921592
C         1.52373345824479    2.55757838044341    5.37446847226204
C         0.46182558026168    2.19573913460549    6.19411146472151
H        -0.53953897156021    2.51802790624760    5.94971927274590
C         0.69937937680737    1.39937506913137    7.29949546791235
H        -0.12078798446475    1.11554009737004    7.94178452454664
C         1.98355778306894    0.95744714207768    7.57668670704348
H         2.16246806400031    0.33245904708015    8.43872699576605
C         3.03604694794008    1.30427023673599    6.74440854079018
H         4.03308790857940    0.94702810692004    6.95236490281755
C         2.81445484013958    2.10647704897820    5.63908859964365
H         3.63472343132008    2.36529228366418    4.98121959363242
C        -0.35380845580812    4.28394029883338    3.75803337720536
C        -1.09632741271073    4.18515399579818    2.58889070113269
H        -0.69994857193194    3.65799888248789    1.73424416129347
C        -2.34929828052596    4.76775498080504    2.52838379858074
H        -2.92913722208544    4.69446848539299    1.62116213969009
C        -2.86079847796416    5.44025980494707    3.62587686019864
H        -3.84139510573238    5.88851416868895    3.57375277907774
C        -2.11742115905929    5.54113485127113    4.79092757158140
H        -2.51657786786701    6.06681838906908    5.64541690046382
C        -0.86176470533962    4.96772167624585    4.85918251406868
H        -0.27353930270161    5.04368372724708    5.76463586070324
C         2.41833341708671    4.98658669001207    4.17209754747391
H         3.35261217064267    4.57317398274036    4.56423136582102
H         1.97570023818087    5.67538186099782    4.89948716610289
C         3.68149523306511    7.35243854473196    3.28335867364099
C         3.55478392288177    8.55340261099228    2.58825643571390
H         2.90872476148118    8.60351432902335    1.72157140661760
C         4.26200929021118    9.66770166036420    2.99577858880131
H         4.16230457602474   10.59446327612570    2.45130556609002
C         5.11099457158185    9.58957522607050    4.08739263628752
H         5.67161841400128   10.45828516840295    4.39828318077552
C         5.25989503217946    8.39116314698596    4.76440440610605
H         5.93968740583197    8.32352955065419    5.60092498984309
C         4.55770594983551    7.26975760643084    4.36169087954071
H         4.71013285829259    6.33021679389603    4.87316564889677
C         1.24656419071695    6.54724005288250    2.10898652123784
C         0.76976121730380    6.24494324049634    0.83855683400082
H         1.36068594743838    5.61859249158899    0.18326812155128
C        -0.44507870611564    6.75645108306193    0.41531020149212
H        -0.80934507062335    6.52678249126251   -0.57492154180823
C        -1.18472170572899    7.56755139632111    1.25793158703934
H        -2.12985570247326    7.97209243071607    0.92711968898265
C        -0.70874703025678    7.87479089167110    2.52376045655328
H        -1.28293409248699    8.51683504844149    3.17569120759199
C         0.50468191266699    7.37216741194723    2.94984997183499
H         0.88833265912149    7.63505001444257    3.92640480543530

