69
CSD_code = BOQVAF | q = 0 | S = 0 | Stoichiometry = C33H29Br2HgIOP2 | MND = 4
Hg        4.19998306152429    6.23642782357015    7.39773962432040
I         2.87256606880213    3.98703288630107    7.87871021891890
Br        3.86133334659441    7.66371159892867    5.25777930795407
Br        6.06675998086363    7.28324595101476    8.78104882052273
P         7.91354009398611    7.33247500758366    4.12328731183436
P         6.34359469764062    5.10791420052339    5.56951647211897
O         9.18207116278123    9.37600051323984    4.61517370520747
C         7.38548822476962    8.29558450152630    5.57199052469266
H         6.33072311223481    8.57802706012864    5.44775610808217
H         7.45539321563901    7.71773744410771    6.50359106719517
C         8.33615192541406    9.45842785815705    5.50129612538247
C         8.22656550396697   10.58286481218970    6.41686497706177
C         9.10840384013699   11.65964960857717    6.25904066728052
H         9.83900982478930   11.61497674155569    5.46521000850330
C         9.03500563278451   12.74770719084201    7.10254313686562
H         9.71572718006345   13.57622911884691    6.97666513882418
C         8.08577751364146   12.77490997059831    8.11488830807582
H         8.02993588672766   13.62658625562840    8.77644458281956
C         7.21119790928726   11.71166132625010    8.28054480375073
H         6.47849108171275   11.73283260437972    9.07218065542122
C         7.27261840841729   10.61883845263561    7.43808162376394
H         6.59600252498273    9.79486506331638    7.58820641673359
C         7.68604452209571    8.28547317173146    2.60714253891388
C         8.74841603254457    8.58399428206239    1.76273127459820
H         9.74470321512408    8.25267947077647    2.01521178739158
C         8.51897342803055    9.33005438597814    0.62137391585974
H         9.33990601592929    9.56341533713556   -0.03986849738801
C         7.24240320763912    9.78615939171429    0.33170469374170
H         7.06993110093451   10.37121683173362   -0.55903783063783
C         6.18990269077065    9.50424270677043    1.18775289014071
H         5.19862666977050    9.87173036445692    0.97165660074998
C         6.40400349576858    8.75207472329352    2.32900500984769
H         5.58022416254191    8.54630793702171    2.99975685137969
C         9.54346446417717    6.58335887498576    4.27639264603511
C        10.29932664768114    6.69865516553410    5.43552147500778
H         9.92677211561410    7.26088868772796    6.27851908004886
C        11.53808886001124    6.08698567077699    5.50159772366613
H        12.12808821270385    6.17328291408680    6.40103699607656
C        12.02170595109438    5.36942584547457    4.42024460926129
H        12.99187784711423    4.89966393738623    4.47639974197947
C        11.26336412665548    5.25000259754337    3.26657368842772
H        11.63994617094610    4.68771476277653    2.42533376859527
C        10.02137073166722    5.85150607018673    3.19279096214818
H         9.42038223795788    5.75977913528381    2.29717834742625
C         6.74459093886891    5.94244539794616    3.94786670595148
H         7.14479394925548    5.21993191442558    3.22950346444887
H         5.80804161871841    6.35751611024863    3.56366298634411
C         5.38867588661648    3.69013067661397    4.94496821442622
C         4.36817343138067    3.87509551157484    4.01512967026029
H         4.19107444305696    4.84831313429689    3.57894968856953
C         3.55342477619311    2.81422540009086    3.66534194540902
H         2.76195034898061    2.96474450543061    2.94617367355741
C         3.73472849222666    1.57222586917017    4.25016949825758
H         3.08620769524948    0.75091098029983    3.98525331381156
C         4.73201855633290    1.39077680672192    5.19385193826971
H         4.86013213160823    0.43053437158923    5.67023729727345
C         5.55134274778675    2.44510647436302    5.54891288085176
H         6.31097214942571    2.31134892267497    6.30737540130193
C         7.95102054014615    4.32759107651493    5.94113465294866
C         8.58587011967339    3.47145153568475    5.04564704507587
H         8.12575135655220    3.24390741858592    4.09339959180068
C         9.79053039365279    2.88953006605707    5.38656103102792
H        10.27980693430970    2.22261763564881    4.69161080017409
C        10.36577504328819    3.14804916302969    6.62161960843649
H        11.30367461230808    2.68201117755888    6.88503627310220
C         9.73325466263837    3.98971122681235    7.51908329989693
H        10.17221777326256    4.18311253912402    8.48630629512964
C         8.52808158445844    4.57998257024628    7.18037176538330
H         8.02622771045187    5.23091126094785    7.88315507969084

