109
CSD_code = BOQZUC | q = 0 | S = 0 | Stoichiometry = C48H56N4Ni | MND = 4
Ni        1.29847636869273    2.66861201161676    0.19463563528122
N         0.05757951385404    1.57452330530204    1.16210142942268
N         2.60122821335407    2.04982126920129    1.30207482316503
N         2.69894136951831    3.21257187196826   -0.83383674965109
N         0.16241771831744    3.80755926356045   -0.84671128080862
C        -1.11120909984720    1.12358337260005    0.71727410300497
C        -1.89359822235955    0.62040024704509    1.78436376109252
C        -1.13691672196769    0.75317439738343    2.93421369003280
C         0.13148902472890    1.29536862871115    2.52457870946280
C         1.34450340334673    1.32258176588584    3.22475741966995
C         2.56980206146080    1.64259608090995    2.60537388123166
C         3.92197020407678    1.64063102440006    3.08229848330404
C         4.72992107964816    2.04737418992187    2.02946893194660
C         3.87133386859432    2.30823758195568    0.93248920247699
C         3.92203916054249    2.83288996110860   -0.41217180877444
C         4.84411064658504    2.98991533042213   -1.47663770749904
C         4.12387415236732    3.46258798978513   -2.56447656758685
C         2.76052274306383    3.60528961672797   -2.14144033703899
C         1.59850867257221    4.02729355724230   -2.81766673454827
C         0.34975632121275    4.12848978598860   -2.18917702727003
C        -0.86388775917515    4.72786982292088   -2.67376739145394
C        -1.71230416321060    4.82672357777890   -1.58652339584727
C        -1.03077295555013    4.26919822575085   -0.47987621272577
C        -1.46021993492954    1.07128121020631   -0.72918727593383
H        -0.61092918542973    1.40494089975574   -1.32648642359179
H        -2.32339692437036    1.69371258041364   -0.95847429759658
H        -1.70129437153830    0.04541542120385   -1.00916743903901
C        -3.27261046822384    0.06426313888096    1.63162734360731
H        -3.46925700478164   -0.66710407102059    2.41842722488919
H        -3.34687283116996   -0.45261950912695    0.67191154768637
C        -4.34069601683876    1.15796907741573    1.68951010761584
H        -5.33374772492696    0.72747479299610    1.57984504960388
H        -4.19114961510649    1.87923802560714    0.88903122848566
H        -4.29594471573588    1.68495356172980    2.63966878023428
C        -1.62925676966812    0.45515884026303    4.31099217017515
H        -0.86682076468998   -0.04276299152243    4.90741758612235
H        -2.48922406911410   -0.21413192064816    4.24239418305507
C        -2.06248487113278    1.73979264039283    5.02216962788500
H        -2.44217098249064    1.51116808244418    6.01551703599786
H        -2.84434995831990    2.24266462327998    4.45746518773322
H        -1.22135868263029    2.42028212324677    5.12149953478143
C         1.37009356149220    0.92325374679869    4.64817802692813
C         1.50687459257943   -0.41514817213909    5.00334746952337
H         1.56231550470739   -1.16404013408623    4.22625839448317
C         1.55359204179000   -0.78189751795498    6.33646590262683
H         1.66362805601002   -1.82282464012738    6.60342920552861
C         1.45651105888518    0.18170857145030    7.32656875900599
H         1.49118210296503   -0.10619626088947    8.36681197211398
C         1.31645471625709    1.51484792629065    6.97995809764221
H         1.24224655855887    2.26933396345002    7.74944740787407
C         1.27739473969457    1.88619903772784    5.64738601276603
H         1.19297261203916    2.92811799063554    5.37285151874285
C         4.43679021896724    1.25539073833629    4.43208757798283
H         3.68142212621373    1.42421151022107    5.19678340621185
H         5.29661999974188    1.88373455995943    4.67624450499672
C         4.86874787618279   -0.21273084351467    4.46383748820206
H         5.25980654112993   -0.47046449505288    5.44582342917349
H         5.63981782708205   -0.40032715503485    3.71979303592744
H         4.02246908680908   -0.85968511198852    4.24907297356986
C         6.20550095705830    2.27613507362424    2.07742453355929
H         6.67871315562238    1.84019859901619    1.19735714121022
H         6.62913718824181    1.78281937710001    2.95306502795079
C         6.51667972500562    3.77344229150703    2.14298407730293
H         7.59171390376274    3.94323649533855    2.13334772176659
H         6.10674157050863    4.20225767250354    3.05513700376585
H         6.07125080222846    4.29269745936442    1.29715037649377
C         6.28590881166583    2.59867225129703   -1.46583899782612
H         6.77133699330067    2.98970246839895   -0.57134570385221
H         6.79476069178293    3.02985510021839   -2.32861276429997
C         6.42864840746653    1.07509177741136   -1.50819266231518
H         7.47664747191409    0.78573757822004   -1.45741465563908
H         6.00616688730034    0.68439997092276   -2.43169999101437
H         5.89710481326646    0.61873412917833   -0.67594985860256
C         4.72842269212502    3.74523200148076   -3.90286101952926
H         3.97762353139968    3.67886692729201   -4.68749898339839
H         5.48813367546013    2.98788641765180   -4.11201309415269
C         5.38413345652371    5.12778046252200   -3.94450137054022
H         5.83266522204901    5.30290253391663   -4.92010331430810
H         6.15802535881920    5.20818703033623   -3.18442175203067
H         4.64551341761397    5.90293256180715   -3.76104543383376
C         1.73282747726685    4.43666232332194   -4.23222029379003
C         2.11765987746060    5.73161068808510   -4.55738182749362
H         2.30276837526231    6.44123526822828   -3.76358800793348
C         2.26531273708532    6.10415198235415   -5.88219726232911
H         2.56457177844013    7.11305010195620   -6.12621434840457
C         2.03246011047400    5.18726205947877   -6.89218615786863
H         2.14977873286234    5.47818049122393   -7.92553294512648
C         1.65040266361320    3.89348177637903   -6.57535565503000
H         1.46985473479734    3.17451984884579   -7.36118677899700
C         1.50010318457584    3.51810250057382   -5.25277771024001
H         1.20571244602830    2.50976782858816   -4.99934368029259
C        -1.22074626904432    5.20156485668177   -4.04618232742876
H        -2.27054511105935    4.95679076353713   -4.22866104003849
H        -0.62739683337400    4.69071420710707   -4.80166290549076
C        -1.03932352973558    6.71403964008508   -4.19748770345756
H        -1.34017169632262    7.02924620204046   -5.19434160414938
H         0.00096356132611    6.98786621505066   -4.04967080785841
H        -1.63934992888149    7.24992656541605   -3.46598049001855
C        -3.10698169974838    5.36403060211288   -1.54432268768907
H        -3.27051293760043    6.05065105699876   -2.37530284591596
H        -3.25533003419985    5.92073152917921   -0.61565453601776
C        -4.13969539611643    4.23725528432888   -1.62101873201253
H        -5.14907950631919    4.64312449663947   -1.61828333428640
H        -4.03857747818160    3.56819893523001   -0.76963338122070
H        -4.00158720267650    3.65706727477456   -2.53114842024697
C        -1.49175888158233    4.29826103401923    0.93612304993325
H        -2.35263891896841    3.65156475657406    1.09612665595633
H        -1.78196956485722    5.31510440364777    1.20166992972045
H        -0.68321935347453    3.98229601063376    1.59589835512315

