33
CSD_code = BORBAL | q = 1 | S = 0 | Stoichiometry = C14H17MoO(1+) | MND = 10
Mo        6.30938106114633   10.51590379677081    2.38355479050249
C         7.29304226848401   10.20995919078883    4.48659988415613
C         5.91344715880715    9.88714133064732    4.56068663573781
C         5.17921318397685   11.08822638253127    4.33481436518909
C         6.10705907943638   12.12425914945135    4.10374209281849
C         7.41008755378970   11.57599012280646    4.17169188498033
C         4.78728176084830    9.76590060581706    1.46033949925728
O         3.93487250352860    9.31669147917910    0.84893188830492
C         9.31497253091520    8.98406621199371    1.99255750718066
C         7.88061755079692    9.28309385180283    1.81476444118502
C         6.85046635792844    8.84517515213125    1.14669219265234
C         6.50118626135881    7.78662627912491    0.18335789774847
C         7.67798469491807   13.35968875719242    1.14198066945312
C         6.76128016440427   12.20780207001905    1.22937390753165
C         5.75013731704350   11.66360538581342    0.63025421085936
C         4.85268072757119   11.84716046014318   -0.52309446256432
H         8.10396434390692    9.55405112111953    4.77786652425912
H         5.50129229501145    8.97209710669781    4.97386286110190
H         4.11753255098924   11.21745504840590    4.51310615952036
H         5.86432923080081   13.17974530733638    4.04294811298452
H         8.32830714504888   12.14435338025042    4.17057426810224
H         9.85076033114932    9.79224331562489    2.48676360601051
H         9.77291758075141    8.80295936563813    1.01899813394238
H         9.42786876408224    8.07411463770920    2.58535327066606
H         5.60530868585469    8.01435559117293   -0.39343342835954
H         6.32449744343380    6.85306124574892    0.72129377087404
H         7.33796195314307    7.62855254312665   -0.49973913809298
H         8.71705941179012   13.03902386444367    1.20455228590216
H         7.49134086377356   14.05857877420400    1.95865124479669
H         7.52854187454837   13.88646305917398    0.19893933144510
H         4.79789191922765   10.94523236274973   -1.13378956999135
H         5.20949349278821   12.67438056727425   -1.13853984653902
H         3.84132193874716   12.07574248311072   -0.18395499161425

