70
CSD_code = BORCET | q = 0 | S = 0 | Stoichiometry = C33H30AuF4NO | MND = 2
Au        0.35226884018486    5.25389157315089    1.22399922101784
N        -1.67322918521972    3.97405640679547   -0.66880700692884
C        -4.44164365187163    2.33147590075288   -3.27994482020076
F         2.41402317850884    7.62778963819367    0.79876476200038
C        -3.56612815712139    0.08441725873696   -2.82916925521646
C        -0.90646399062081    4.46116126374384    0.05804019093361
F         4.19663483883488    8.78590510015090    2.44803028040792
F         1.13769844287144    4.70071186246755    4.26036411815222
C         1.69078017188739    6.10916087852115    2.45394500764426
C        -3.52781726008953    1.48199308174794   -2.60591595986638
C         5.84117321532755   12.64814639000401    7.04634802347653
H         5.57957468891040   12.84155061778133    6.00364803682896
H         4.93690135182288   12.78611932626846    7.64403635658550
C         1.88519505054851    5.71993276460646    3.77022732424084
C        -5.38673550010564    1.75155988235986   -4.17334526503453
H        -6.07734693450353    2.41021748786714   -4.67954914669704
C        -4.51713341329736   -0.46478538287286   -3.72465372792415
C         2.51582466309859    7.16068612176039    2.06611686478100
C         7.47736801415347   16.10199364045369    7.79184671531406
H         8.38306073040295   15.95919212045870    7.19746429954520
H         7.73683374301430   15.91689472957797    8.83711380516056
C        -1.66888085424630    1.14597207838234   -1.04537040253938
H        -0.94647539345536    1.56870729369785   -0.36212536936650
C        -5.42317304267686    0.41461215360704   -4.38604259004512
H        -6.14435648889891   -0.01527068369829   -5.06604711998671
C        -2.57390423746801    2.02161800142300   -1.70885964676589
C        -4.39014825930829    3.71087685256193   -3.05034917445491
H        -5.08527035634927    4.35790384011542   -3.56374456319095
C         6.89970410711470   13.65284568674429    7.49458160148863
H         7.80479819325136   13.51232551773885    6.89891932271974
H         7.16001566964717   13.46270919573243    8.53877063774370
F         2.87923916779167    5.80019121717642    5.90414186761084
C         6.41946912772915   15.09469622674728    7.34833738491570
H         5.51449739425437   15.23586733105281    7.94434745856307
H         6.15805910794286   15.28255691337181    6.30423290225809
C         5.26612278099627   10.20745575506542    6.71683438676246
H         4.35955017925331   10.33296438582435    7.31414254808036
H         5.01236564317856   10.40774200209173    5.67484417268451
C        -2.65459093873874   -0.76835261863056   -2.15912329064164
C        -3.46786222659327    4.24859636694112   -2.18226793828300
H        -3.42715028925402    5.31289775081782   -2.00535637253138
C        -2.56720848432715    3.41687595847154   -1.51553984536023
O         4.55000373362105    8.01635750006801    4.93368811621972
C         3.43739402865539    7.76635663454006    2.89963746191958
C         6.32216803989868   11.20568193732833    7.18277557164531
H         6.57667008561537   11.00533549073906    8.22671535775213
H         7.22996798720568   11.07206562002966    6.59021738284582
C         4.71357132925451    7.77362627130350    6.32181749133376
H         5.05674277326804    6.74563947845302    6.48951953385059
H         3.76135516280682    7.91833261086063    6.84627388382212
C         2.80099994086236    6.29719612117612    4.64313222951197
C         3.61286508984561    7.35129335319127    4.22745536934535
C        -4.53639424488606   -1.84560067905232   -3.93040050518109
H        -5.26077393098158   -2.26594749240139   -4.61271885727885
C         5.75302522187190    8.76494634724630    6.83279326548917
H         6.66505361396048    8.64254536935393    6.24655994607446
H         5.97717663811046    8.52460579439183    7.87361010662340
C        -1.70958892730680   -0.19055626335833   -1.26333692688388
H        -1.01895642668709   -0.84804195747788   -0.75596244664152
C        -2.71079979635129   -2.14342848460874   -2.39658733779591
H        -2.01591593096405   -2.79437583414287   -1.88654720305201
C        -3.64209432909904   -2.67061449805196   -3.27245197925540
H        -3.67159260888911   -3.73636196637438   -3.44440286470726
C         6.99849000026976   17.54377756923004    7.63993888461634
H         6.74021948142798   17.72882624773170    6.59470968325588
H         6.09269504760514   17.68691994147443    8.23380359347479
C         8.05822640922321   18.54452878826166    8.08407646791932
H         8.31481544523240   18.38938266354150    9.12991420515204
H         7.69707774397889   19.56377192977851    7.96686386407946
H         8.96275878587022   18.43047561900718    7.49041991197955

