47
CSD_code = BORCIV | q = 0 | S = 0 | Stoichiometry = C19H21HgN3O2S | MND = 2
C         0.34782773304355   17.82887711054112    3.65384401740050
C        -0.15627761154014   18.88888442775288    4.40495685682833
H         0.27912095521925   19.13950565977008    5.36613795144066
C        -1.22287560766926   19.64220786487350    3.93803467150075
H        -1.59973352156417   20.45995600733227    4.53565342788651
C        -1.80119063632128   19.34987539109802    2.71599505318025
H        -2.63284498437311   19.93697702175998    2.35388798220611
C        -1.30795542168228   18.30090386995368    1.96121523326520
H        -1.75191127853508   18.06322984400414    1.00501633162205
C        -0.24181104189614   17.54479031777430    2.42410621320562
H         0.12324105522305   16.72770787773981    1.81386933216685
C         4.97653963359599   15.34035876934428    5.63758435842678
C         6.37964062525557   15.72352049414358    7.63781337183529
H         5.62035560363517   16.45962534099108    7.89848423522457
H         7.36806555028631   16.19557759533181    7.65330909785987
C         6.35760886009614   14.55416620737505    8.62994804942295
H         6.62357913545370   14.89137634211243    9.63249388379187
H         5.34820130859082   14.11553519809276    8.64755757597404
C         7.07201170015573   13.07585001430824    6.98013769656576
H         6.08900267789998   12.58130138367264    6.93723067990783
H         7.85609893249256   12.34192569893371    6.78724247092015
C         7.11085299800525   14.20401058557428    5.94167375997977
H         8.10443623021464   14.66427409654825    5.94066787535358
H         6.87168726131778   13.82950240761097    4.94840488144678
C         3.73503954752883   14.07954270763763    2.67023816682751
C         4.95013619029513   13.37139979640633    2.15124234743324
H         5.42348200785244   12.83691487096823    2.97372942661905
H         5.67342187321808   14.09686895932580    1.77866240778429
H         4.69238382763232   12.67606141308541    1.35807594963908
C         2.49928697882978   14.06075418028914    1.88377767231114
C         1.23918888365532   13.92096685747444    2.49249256752270
C         0.08632526279329   13.91690950621448    1.71610937970080
H        -0.86290968850022   13.80740324807538    2.21653855117972
C         0.16551903523959   14.05788376472660    0.34416933263351
H        -0.73804855088297   14.06331698809600   -0.24613947503904
C         1.40201045913295   14.18516737697943   -0.26928049376760
H         1.46845195861748   14.29134507311900   -1.34123926819193
C         2.55210944605407   14.17873030178107    0.49384786979779
H         3.51277060688470   14.29575288235374    0.01535794762550
Hg        2.04067887656752   16.59382480855707    4.41216267212355
N         6.14210958895121   15.21553661725228    6.30784460050795
N         4.86702444128006   14.64635400722303    4.54007232599524
N         3.73488618735305   14.70130215300892    3.80659265208624
O         7.30648416515274   13.57143259367878    8.27803571171946
O         1.08799775431312   13.75166726856896    3.83943413099824
H         1.95358542288612   13.55747765479619    4.23297815370965
S         3.82289556821135   16.46794744375806    6.31173236340317

