185
CSD_code = BORDEU | q = 0 | S = 0 | Stoichiometry = C81H93IrN4O6 | MND = 6
Ir        6.07847026782714    4.34381905490636    9.04671687448756
N         4.27328357510126    8.45988471049344   10.76779575414177
N         5.35042277578719    6.20965762677978    9.46587160269003
N         6.70435585711627    2.43357481690571    8.59336980527069
N         7.66975646430271    0.02299401467437    7.49443917204340
O         8.23158192038304    4.84134371702310    8.71727141403069
O         6.65856000991390    4.59066042465696   11.20867818461119
O         8.66745695039245    9.11992298657848    7.54626631239389
O         7.77948596914006   11.11805909645207    8.89138121357842
O         7.81692778939686    0.67621993856991   12.93629447082331
O         8.69598964045971   -1.48461006231130   11.91528413986675
C         4.22925742916606    3.80376155387658    9.62287277539592
C         3.58251495171238    2.56503077369494    9.67855697748704
H         4.01920957567955    1.70706267655927    9.18534354416092
C         2.38769830757975    2.40456279479266   10.35222490289425
H         1.91287069130179    1.43266957061349   10.37508653156686
C         1.76752406490695    3.46897111335312   11.02465483803574
C         0.54880783995216    3.34168438544739   11.74932706808458
H         0.06811069417308    2.37385085346898   11.78039352776500
C         0.00179903654894    4.40512221389802   12.38830501630440
H        -0.92321019935956    4.29883726780459   12.93766621055506
C         0.61619148810987    5.69235843527208   12.36197716384737
C         0.06526138201351    6.79902434686070   13.01996267798808
H        -0.85713620579365    6.67695365840346   13.57012644219721
C         0.68710430524641    8.02854173012487   12.96997287510192
H         0.24982030121872    8.87250229931431   13.48370393825796
C         1.87061590973596    8.19561007948664   12.26394744066186
H         2.35932355928072    9.15601591505102   12.21815203110297
C         2.45132147668286    7.12367794489824   11.59836943842539
C         1.82443866511866    5.85553543014408   11.64566736322284
C         2.38986868578648    4.73314414947437   10.98298711931144
C         3.59817239369441    4.86848377142162   10.27845550861474
C         4.22854964737423    6.14467779550241   10.19535178315040
C         3.67812912715762    7.28227257374632   10.84221559106267
C         5.36709945180149    8.55177995985712   10.00399367727288
C         5.91092962963161    7.42657200151721    9.30911907025679
C         7.01163436778092    7.61570581199914    8.45476028708831
H         7.35891944471014    6.75818406299343    7.90327172295337
C         7.60892203390992    8.84295519927247    8.33305296939292
C         7.10102105735754    9.96541734701512    9.07607234088915
C         6.00107886385634    9.80618108193453    9.87464679765906
H         5.56640015196657   10.62361058154458   10.42479786102509
C         5.63648525720795    4.34479918709622    7.08488185691788
C         5.07030138946861    5.32608987381089    6.26306703127640
H         4.68235841845271    6.23596925362018    6.70062860417631
C         4.98962396576993    5.16388610713274    4.89447154284623
H         4.54643196221261    5.94290977341872    4.28838870856801
C         5.46782236473434    4.00895353317281    4.25616026936566
C         5.40467766772037    3.80187047806497    2.84919394198057
H         4.96579672389396    4.57574866740620    2.23501405000925
C         5.88047598048133    2.66266316974339    2.28855060406090
H         5.82742248273927    2.51350035326432    1.21914918727507
C         6.46020703590355    1.62551537516876    3.07778781814272
C         6.95032007264975    0.44034652149642    2.51527913792063
H         6.89231237577677    0.30414472600891    1.44456543535443
C         7.49832667885865   -0.54244628487827    3.31199192854653
H         7.87113500225633   -1.45167637800384    2.86289703417181
C         7.57552318721764   -0.37744848729924    4.68820092085199
H         8.00082218584942   -1.14351148689858    5.31708584848898
C         7.10329788115167    0.78392834075164    5.28593447151726
C         6.53933321549790    1.79999601942693    4.47879721761469
C         6.04053025542681    2.99877019102222    5.05500121772466
C         6.11289952237052    3.19377547547428    6.44541254451993
C         6.67929285281874    2.18318998161769    7.27586583846928
C         7.16822918150748    0.97019910691820    6.72235193886705
C         7.68008375470066    0.24275678145509    8.81283207839072
C         7.18988712377283    1.45721072077426    9.39044535963547
C         7.21342264194815    1.60313806327705   10.78862072063756
H         6.80630178505729    2.51157103593635   11.19758702458832
C         7.72846366637455    0.62201168170984   11.59326624874601
C         8.22706728407217   -0.59657126199556   11.01517087076444
C         8.18902932961962   -0.76659198041960    9.65890656933314
H         8.54421460216110   -1.66479418681702    9.18217698644809
C         9.23323671968277    8.07031884348138    6.78163911099244
H         8.51567374963235    7.72923083071255    6.02295939237548
H         9.47723759471815    7.22132484747530    7.42955571952510
C        10.49898057945167    8.60431190412692    6.12109744502073
H        11.14805001581166    9.01379069094219    6.89726228028573
H        10.23118240846060    9.42150986398114    5.44969388021910
C        11.23281802989966    7.51022288617733    5.35106442894858
H        10.56748588461005    7.09228629351616    4.59216824698828
H        11.49842807018193    6.70199036679567    6.03620636118924
C        12.49917806454232    8.03777976360250    4.68120396166224
H        12.23444249789516    8.84262306141558    3.99187824456546
H        13.16082206470766    8.45945004438480    5.44134097348176
C        13.24125768575022    6.94325570363310    3.91780085242750
H        12.57886761559104    6.52063836973316    3.15868101754203
H        13.50639578794141    6.13814178508423    4.60721052189955
C        14.50719585687651    7.47000252843726    3.24664856673279
H        14.24248445210610    8.28068174970490    2.56358234251762
H        15.17338380596334    7.88446887807804    4.00715366115855
C        15.24486201805283    6.38094112450545    2.47143835549220
H        14.57994542100373    5.96874406535759    1.70896435675418
H        15.50847714380883    5.56885289942904    3.15294804922457
C        16.50793340482147    6.91460072052162    1.80693034453738
H        17.19546362085217    7.30620411206210    2.55364649941213
H        16.26404049392462    7.71690161793223    1.11378528606504
H        17.01386424463252    6.12602840962018    1.25471066595556
C         7.32022833232635   12.28280251400818    9.55063356680189
H         7.30420106777149   12.11438466456053   10.63470136157610
H         6.30120126784492   12.52308281627237    9.21608708786168
C         8.27118096049285   13.42053497085509    9.19305305659200
H         9.23758113352164   13.23878069058058    9.66298135893622
H         8.42390171736612   13.39792503214234    8.11255641416194
C         7.73065782057302   14.79330901063388    9.59259576714748
H         8.46493997929097   15.54745431294195    9.30089586299768
H         6.81573771161957   14.98863949599098    9.02766536439255
C         7.42202725897690   14.95148571602817   11.08293571302698
H         7.02555843769193   15.95753911865278   11.24151526939792
H         6.64219747883275   14.24486480842223   11.36760740243191
C         8.64648564363759   14.76349977012526   11.97677581652471
H         9.45669846463281   15.39025576952051   11.59576533582084
H         8.98110860022932   13.72559741694255   11.93453207090005
C         8.38302546213615   15.13774172474775   13.43600438862381
H         9.33194506625284   15.11790514604284   13.97816532373618
H         7.99888515892499   16.15950398176811   13.48415837194571
C         7.40343426999331   14.19818882725100   14.13681376515746
H         7.75471445442597   13.16880213692150   14.03268757282096
H         6.42282854105199   14.26618222798065   13.66297884537606
C         7.26387948953552   14.53632014937297   15.61625490672131
H         8.22411282226236   14.45083458991683   16.12069026619453
H         6.56133980474860   13.86122204802843   16.09947431039556
H         6.90253830839186   15.55479310727432   15.74152057647673
C         7.42759244523822    1.86707703079888   13.59511618916500
H         6.35280933087468    2.04293886607048   13.45402652840638
H         7.97804998607959    2.71801740740489   13.17577339199886
C         7.75297385722079    1.70291254643252   15.07579075152282
H         8.81218365188841    1.45752513952165   15.17155253366015
H         7.57385397568018    2.65461981532522   15.57967115891502
C         6.91633738987626    0.60019173180212   15.72055113467674
H         7.05476343914887   -0.31465304397716   15.14455142880350
H         5.86019330485584    0.87604898479544   15.67107548110387
C         7.31196513830086    0.36955730723768   17.17741212388377
H         7.32964487866635    1.33390570471975   17.69242327929017
H         8.32262391838699   -0.04280757757534   17.21928771844769
C         6.35367277653917   -0.55904612097480   17.92360324720259
H         6.62949676989204   -0.56691184847824   18.98158056648406
H         5.33942767530593   -0.15812367839003   17.85307873896590
C         6.36506251569910   -1.99507899671670   17.40464681432787
H         7.38196613881187   -2.38856489044154   17.45671136667142
H         6.05284171420758   -2.01350751621604   16.35925609967364
C         5.43403807432086   -2.89411804120537   18.21532049583417
H         5.73407528864512   -2.87329197694891   19.26606869021284
H         4.41574567818389   -2.50230507941867   18.15669371223630
C         5.44937826826506   -4.33301854378191   17.71407132139051
H         5.15237179356243   -4.37588603043144   16.66808766775807
H         4.76264610151865   -4.94799574182434   18.29132665286275
H         6.44664049848999   -4.75908426307503   17.80462056719697
C         9.10226337579025   -2.76443222458987   11.47401362359643
H         9.95066392396047   -2.67496715356544   10.78158534029085
H         8.27319678546922   -3.26016802452672   10.95048460575181
C         9.50836927567404   -3.56242668333573   12.70928079199822
H         9.88477837505125   -4.53629600126738   12.39118040945098
H        10.31342865188169   -3.02439941345830   13.20893604874713
C         8.33253020354531   -3.73699600061707   13.66859336307966
H         7.52899557224378   -4.26429191172299   13.14777276764895
H         7.96127542135207   -2.74827910376149   13.94217821368671
C         8.69361566250956   -4.51303602913086   14.93417137546335
H         9.10817394827982   -5.48636304087793   14.65984417480450
H         7.77589599582379   -4.69336499536846   15.49885257276282
C         9.68139886200878   -3.77339633485358   15.83482054903187
H         9.31700393121009   -2.75740317822332   15.99309100487546
H        10.65489333304065   -3.70871672551649   15.34558348692352
C         9.85339037937548   -4.48021111788772   17.17790197131032
H        10.13968865167974   -5.51882257481059   16.99265746087960
H         8.89699878481053   -4.49405869745737   17.70675294081042
C        10.90987032217373   -3.83352193138806   18.07434951964075
H        11.05910370359020   -4.47018555918177   18.94995716899410
H        11.85968940218363   -3.78626624381840   17.53633264732671
C        10.52389247408970   -2.43531646810033   18.54346443873130
H        10.47701577047129   -1.74227734288360   17.70752825943359
H        11.25819721590493   -2.05909917029899   19.25229845225653
H         9.55299185361603   -2.45235938778641   19.03440956966987
C        10.53119088200704    5.25629713849701    9.09045849608677
H        11.18222289044757    4.57893037318630    9.63940952407356
H        10.88213044105529    6.27351507073796    9.25686263482254
H        10.58298321772284    5.02066490309195    8.02941014391209
C         9.09953960711449    5.10832250214381    9.58198512715521
C         8.89919622365505    5.32337872542626   10.94911060770240
H         9.74764982994860    5.67654235327801   11.51628630425940
C         7.70774717266191    5.11995210112021   11.64945970778184
C         7.69034706403767    5.55757554134629   13.10484476407447
H         7.64324489633175    6.64533637521639   13.14356291503619
H         8.59016765198470    5.23628356024743   13.62408074913020
H         6.81115195846351    5.15341602245938   13.60198282441890

