45
CSD_code = BORGIY | q = 0 | S = 0 | Stoichiometry = C18H20O4S2Ti | MND = 12
Ti        1.96093092642834   -1.46193930649615    2.83803515551851
S         2.03811578232469    0.28153095550579    1.19644665320535
S         0.40959396138211   -0.05626004313983    3.95991474043301
O         1.85012826434607    3.69447753239157    1.21193137525204
O         3.68134366033227    2.98567057720787    2.31365712235657
O         1.60702481370762    3.65921258443259    4.16273245885131
O         0.30353193456069    2.35916337680857    5.45158535621419
C         1.84005027588995    1.56566631855565    2.31630960304511
C         2.41377365181953    2.88946754622118    1.89706766924973
C         4.31941926791762    4.22748534224424    2.04176088072479
C         1.17944712805634    1.43037448775568    3.49818596410894
C         1.06033974343169    2.59927831963362    4.37855963224976
C         0.12490233838992    3.45078862401641    6.33864632958699
C         1.18475994617623   -2.60838705582249    0.93531991974303
C         1.91105139148804   -3.52934966432016    1.72311781941206
C         1.24521049023271   -3.68484461064266    2.96003513640091
C         0.11390997305308   -2.84746827169717    2.95213440910639
C         0.07587724600197   -2.18114291204407    1.70400229696614
C         1.44329764456513   -2.29965567408864   -0.50635447248002
C         4.28018422723516   -1.47041268234087    2.79966281898514
C         3.89429123683088   -2.58565377114358    3.57270597957681
C         3.19197431839731   -2.12124914038339    4.70762267738387
C         3.22130575911086   -0.70890549863541    4.68387941896449
C         3.88782747259019   -0.30602612812247    3.51368116342884
C         5.09482735869863   -1.48755914052878    1.54167692926438
H         5.35462935426973    4.11279016421545    2.35306888143201
H         3.82833283103517    5.01782403119939    2.61166197524095
H         4.25570784251665    4.45938886585450    0.97689363294604
H        -0.53649289174513    3.09624896418401    7.12491569592575
H         1.08566845266980    3.76342764094275    6.75433091905035
H        -0.32045088494287    4.29743505335614    5.81200920190443
H         2.74284686610853   -4.12356790673445    1.36682662844479
H         1.48979478271691   -4.40841138026004    3.72733330414645
H        -0.64738206659981   -2.79203019121967    3.72045799883650
H        -0.71291668455758   -1.52240028899463    1.36159007679712
H         1.03163883673168   -3.09783887688847   -1.12791192099854
H         2.51236074151007   -2.22708772635303   -0.70643581928002
H         0.96939661754200   -1.36269125812278   -0.79329682597925
H         4.17293274630453   -3.61333138609357    3.38060169515440
H         2.83846084338385   -2.72734549533668    5.53334311026637
H         2.88030487714254   -0.05879678774056    5.47968229081408
H         4.16383710162709    0.70884708959084    3.25555690579547
H         6.12986396759631   -1.21896852870193    1.76278806874099
H         4.70617567213969   -0.76212932930611    0.82351020512509
H         5.08957218157984   -2.47822441895641    1.08715693808959

