97
CSD_code = BORQOO | q = 1 | S = 0 | Stoichiometry = C40H40N8O4S4Y(1+) | MND = 8
Y        -4.39520835655510    0.08331513946492    3.18915652742536
S        -4.57477704515449    2.69614123626520    5.35595615746710
S        -1.61032041202425   -0.03860602741939    5.20695587059621
S        -4.52005434344598   -2.40218562223261    5.59927162973199
S        -7.60139992023035    0.61331029786786    5.36343845673581
O        -3.73601802301506    1.49490482906252    5.04652983633170
O        -2.69302842988284   -0.92840637807364    4.68119960579731
O        -5.24817490297495   -1.69417773726857    4.50286947714966
O        -6.31432134207849    0.86158529616693    4.64026247259506
N        -2.50403386040095    1.02194957056349    2.39734240269920
N        -1.16211164986482   -0.95076515356802    2.10989683680899
N        -3.48554574733538   -1.53802838187791    1.93261793144688
N        -5.45793104291986   -2.82090178767330    1.45176542876513
N        -6.07104267926580   -0.53074930722337    1.83998311754242
N        -7.37372135344926    1.48827274385368    1.84239879143415
N        -5.07860170855963    2.02993031239046    2.29249526216217
N        -3.09410737035293    3.33344594020141    2.66110277166237
C        -2.23014494669097    2.33883003990845    2.58801446511587
C        -0.79265670393653    2.53405397639787    2.68079175438369
C        -0.00029591879618    3.65410660562683    2.86934824379191
H        -0.44471631960633    4.62976703628438    2.98720473666523
C         1.37346538309497    3.47723313168013    2.88579018010096
H         2.01867566890455    4.33113809580200    3.02745633488360
C         1.94303317857840    2.21865124465165    2.70982545411506
H         3.01830735249816    2.12239772977313    2.71688204318697
C         1.15787539730844    1.09438742800234    2.51430620435475
H         1.59649038872926    0.12144616603338    2.35834768231409
C        -0.21715064197065    1.26101567216967    2.50628037379951
C        -1.32964420194653    0.34081720343744    2.32440969971999
C        -2.15149737747679   -1.79832350022200    1.90631005280102
C        -1.93212137750339   -3.20124181664510    1.58814042815479
C        -0.78966917463816   -3.97007614388766    1.44337458846181
H         0.18770341266503   -3.53357460104248    1.57576971769471
C        -0.94972767300600   -5.30665702824303    1.11465984781740
H        -0.07853140195266   -5.93263905778495    0.99342955190093
C        -2.21374981069691   -5.85985264208761    0.92765444174996
H        -2.29732379132702   -6.90358577038865    0.66470306114571
C        -3.36162483248166   -5.09569219606217    1.06392838077522
H        -4.34299188772637   -5.51516594435492    0.90837874758977
C        -3.21043686153239   -3.76106061604320    1.40001691050812
C        -4.15775795224277   -2.67656239726437    1.61405605352291
C        -6.32135016110186   -1.82718031051218    1.50872350672842
C        -7.71919162409106   -1.97434534879727    1.13403374892607
C        -8.47947347081594   -3.05682899276958    0.72484356415594
H        -8.03923717710739   -4.03799864948714    0.64747448731709
C        -9.81075928009583   -2.82986674168341    0.41514556235014
H       -10.43024811668849   -3.65320264584981    0.09310999664392
C       -10.36765110717597   -1.55626524181849    0.50086114042463
H       -11.40663744736241   -1.41741504872832    0.24271825753007
C        -9.61245284936359   -0.46598669342920    0.90131716819537
H       -10.03552276788260    0.52520554264830    0.95475127068067
C        -8.28255971410718   -0.68639434947786    1.22272499822052
C        -7.20719023157703    0.19139650923282    1.66132204594344
C        -6.39454503857423    2.32539794593461    2.13100590775726
C        -6.60034024044624    3.75615975433363    2.28873707422793
C        -7.72394984888302    4.56407184462128    2.22790370309939
H        -8.69633636995177    4.14360570009110    2.02482825860755
C        -7.55172440781411    5.92489298905841    2.42003120496204
H        -8.40761552172781    6.58135038160355    2.37454117771579
C        -6.29190767216951    6.46812863326680    2.65953350340492
H        -6.19664806665517    7.53492856065181    2.79497844363176
C        -5.16234025890461    5.66848998749584    2.71472956100450
H        -4.18263941373181    6.08714990934842    2.88182300916866
C        -5.32668386154473    4.30557126020856    2.53104169961462
C        -4.39729908187138    3.18701597154620    2.50902564022324
C        -5.03734211565477    2.46869380755356    7.12191622698098
H        -5.60336684103283    1.54641909293314    7.19021785743051
H        -5.65749422852535    3.30585227534009    7.41936586504618
H        -4.15033581028334    2.41736594373493    7.74184533114227
C        -3.34113216989331    4.00493455546168    5.68564730448135
H        -2.90329390505196    4.26713089100528    4.72711017533929
H        -2.57528059383429    3.62924705663558    6.35348089786397
H        -3.84784079458759    4.86189807171453    6.11247365299854
C        -1.84469725575411   -0.12187823642312    7.02418093223721
H        -2.80183981490028    0.34142752836623    7.23211189362522
H        -1.04383133703684    0.42809770151406    7.50390857494324
H        -1.85441410325537   -1.15472202660596    7.35017277027957
C        -0.13183207907748   -1.11728440478806    5.17396627764237
H         0.06408379080946   -1.33951078038087    4.12924375600796
H        -0.32089819796106   -2.03363747588749    5.72024647459241
H         0.70356586170954   -0.57596000804457    5.60131616309204
C        -3.61521388907734   -3.76947113862204    4.79294689428508
H        -2.75436784995403   -3.34293924133888    4.28837630005543
H        -4.26582510600967   -4.24769333245759    4.06810042735339
H        -3.29176775397223   -4.47550289389829    5.54979715418682
C        -5.83610027061797   -3.49317795178782    6.29822553171729
H        -6.55505119646460   -2.86633041714099    6.81530378064160
H        -5.39031670321485   -4.18622551409764    7.00150122089449
H        -6.32727665756103   -4.03032491366088    5.49495717451900
C        -8.33475528554425   -0.89264499815186    4.62350489754141
H        -7.52157358841963   -1.60004462614420    4.48391404168605
H        -8.79741912702646   -0.67092084409082    3.66794139215935
H        -9.06729765123266   -1.28908981284083    5.31888863598307
C        -8.79265164423530    1.80309321298832    4.64657883889676
H        -8.55383404614485    2.79366068378377    5.02102417356635
H        -9.79245609366687    1.52174957702799    4.95658135559549
H        -8.68955152970659    1.78605966195474    3.56332756680897

