83
CSD_code = BORVIQ | q = 0 | S = 0 | Stoichiometry = C30H41B2CrN9 | MND = 5
Cr       11.69065674562598    5.00005442901126    9.88203583666228
N        13.12624137403466    7.67930255134701    9.81780358134363
C        12.64232171261770    6.63443289101062   10.48928561308149
B        13.57506344017666    1.99887185766911   10.09433324726538
N        12.80086704568090    6.89906993442539   11.81066567544285
C        12.72374208875358    4.08568839960195   11.31041437498215
B        13.29985439892125    7.75111375218772    8.26597797866843
N        12.87338067185498    4.64602826319501   12.53729792424505
C        11.70482695551862    3.27425372100186    8.89413299817422
N        13.31518143728428    2.89139625738817   11.34946397402667
C        11.60325727383019    5.82295533577617    8.07423713903892
C        13.58917639464343    8.60310982009867   10.70830842188144
H        14.03113033209713    9.52882602405660   10.40527067086134
N        12.37096854935229    2.13907769434323    9.10886424741815
N        10.88249550778250    3.06071302335166    7.83612363501405
C        13.38722536959443    8.12773859972836   11.96372359172688
H        13.60008675536853    8.55839444412906   12.92125454291991
C        12.40613499176157    5.97463486074624   12.84510844545339
H        11.30442922519814    5.96505769565297   12.91984176531154
H        12.83028170215714    6.29726154975062   13.80244748231987
N        10.79814579487339    5.31240979486712    7.10836207743756
C        13.55796381492130    3.78369389101785   13.35390950267041
H        13.78156007095621    4.00305563784719   14.37838166833917
N        12.16792381286417    6.92251892515997    7.57507288203083
C        13.83020394280732    2.69055811914298   12.59621162837718
H        14.35431576866428    1.79881192784612   12.86903300959750
N        10.16837191740662    5.17078872225436   10.48062957447778
C        11.96931794893512    1.20827123348816    8.19645188470290
H        12.36721208254044    0.21564234949251    8.16943345116558
C        11.03232152961544    1.77272605185778    7.39218875204172
H        10.47299763480579    1.36870671848834    6.57275290669567
C        10.04352410210083    4.09582453772316    7.28511053762080
H         9.20303074647940    4.28782566371148    7.97476150595185
H         9.64966750520747    3.76822915638279    6.31675665234827
C        11.72294690524170    7.10972775738244    6.29924911891111
H        12.04187289216960    7.92826621584614    5.68900422326330
C        10.85919366854284    6.10769002933987    5.99454120429137
H        10.29589809194350    5.91130786900990    5.10469099648361
C        13.23762879567579    9.29839114179294    7.77126389198688
H        13.37194674549422    9.38785369257603    6.69599943310301
H        14.02588338439814    9.90000496028187    8.21744594713968
H        12.28804304351066    9.77048637853828    8.02014767424661
C        14.86286061262004    2.65915081912066    9.32954534677641
H        15.10599753403673    2.13731051525723    8.40589313561673
H        15.75812516389366    2.65249245721677    9.94846914069654
H        14.64896580394436    3.70185595132601    9.07176101335564
C        13.77928271763283    0.44767184500549   10.52900617891055
H        13.98451917862898   -0.18936415238852    9.67185109595867
H        12.90382503760256    0.04172410284226   11.03418060660908
H        14.62722015675019    0.32385545149770   11.19855616227899
C         8.94469819766817    5.34402809562543   10.98328827909467
C         8.34537939138668    6.62919313475113   10.98529461278263
C         7.08769942566088    6.78731827499623   11.53619248558291
H         6.62914950013640    7.76578056886297   11.54466238739262
C         6.40431804401327    5.71403383939411   12.08213301197727
H         5.42487571449549    5.85834435108047   12.51413201053891
C         6.97935158679561    4.45369499692220   12.07187165642906
H         6.43690061762582    3.62382273510046   12.50025821677712
C         8.23092817735517    4.24425131401896   11.52563219921618
C         9.10164107933007    7.79296786566710   10.38921729998774
H        10.05144564753179    7.40270037619268   10.00296409041015
C         8.33359469910992    8.41202944747027    9.22031660794350
H         8.92904619687608    9.19463392636416    8.75517783966578
H         7.39405038218399    8.84640256794971    9.55461890117476
H         8.11530861500660    7.65399242493218    8.47106260807160
C         9.41570231616833    8.84731249204366   11.45261402977764
H        10.03595466227431    9.63417887878672   11.02880014921649
H         9.95316374700936    8.39599512214837   12.28417722869637
H         8.50265809403094    9.29614026539356   11.83757438956242
C         8.89157334700483    2.88605324707763   11.51747405129392
H         9.70814132425474    2.92715149678382   10.78436346239446
C         9.51502715601408    2.60496422662064   12.88764239340352
H        10.02815831702646    1.64601200516631   12.88038548839367
H         8.74855838228019    2.58715018593633   13.66020505028194
H        10.23791266593128    3.38039575816477   13.13149050725247
C         7.93474133856776    1.76336650614403   11.11853043747470
H         7.41861494917989    2.01208205133403   10.19368598547978
H         7.19072610012336    1.58508062727690   11.89119503547250
H         8.49104624662302    0.84074358847743   10.96689020357575
C        14.70630160859806    6.99118517796499    7.92034315856300
H        14.90276384706905    6.95842929587455    6.85046738748058
H        14.67708983099009    5.95887485149431    8.27941071267380
H        15.56039041504339    7.47532143552365    8.38987577292288

