93
CSD_code = BORYUE | q = 1 | S = 0 | Stoichiometry = C38H52HfPSi(1+) | MND = 12
Hf        5.35032233615147   22.92405302193057    1.44941973889804
P         2.84843975984889   21.80490492125898    0.98015849445715
Si        3.43251251269005   18.49786660650501    0.90305963652770
C         5.18977005102596   20.77127298670569    1.50334721602106
C         3.96468066368366   20.34137786268861    1.10962471547195
C         6.29249195552839   19.80021971135243    1.86150477703567
H         6.08762943566837   19.35145482555354    2.83425741368874
H         7.26505388793900   20.29155630732756    1.91927732159928
H         6.35562944292807   18.98075683335655    1.14677352469390
C         4.26893817983512   17.82253253241012   -0.68229164430587
H         4.14799536861787   16.74415279223497   -0.71418971779380
H         5.33536671886826   18.02475084340854   -0.71541066614027
H         3.83837362981524   18.21741324557431   -1.59768616203574
C         4.02400968636231   17.43493569826952    2.37884146547834
H         3.42793484580630   16.52814212052407    2.41961631981869
H         3.91394750307825   17.92967396629399    3.33932315135711
H         5.05973771576641   17.12814064873161    2.28008454299920
C         1.54139337436868   18.27261660459514    0.79123719089150
H         1.30219119679223   17.49987131507689    0.06697299050650
H         1.00722791658262   19.17067609337908    0.50060761160175
H         1.13472275476078   17.95481586073932    1.74598869593855
C         6.32647302432191   24.39783335104770    3.17264213061201
C         6.28326390583335   23.06463378014957    3.67950842308495
C         4.90956792226486   22.70570648822508    3.87835065848760
C         4.10993806990888   23.78548886967454    3.41555483618469
C         4.98054756860473   24.82339245154903    2.95968113422654
C         6.31173903236512   24.61885036039906   -0.07061017470124
C         7.33287361552765   23.64483053368184    0.13054887211558
C         6.87873551989105   22.41340328666526   -0.42680287334104
C         5.58553038655908   22.62672239980103   -0.99198142628673
C         5.21332874682883   23.97821145958956   -0.73193513306112
C         7.52397342616565   25.29188143890107    3.31398990060460
H         7.54113657940704   25.68219281542686    4.33429512395073
H         7.49212918674080   26.14607990983997    2.64481161079985
H         8.45400638245196   24.75230424849746    3.15962459643880
C         7.46031990999691   22.31768667752088    4.24284876725391
H         8.33301862104920   22.38211043190774    3.59267396219851
H         7.22085149634761   21.26944372236280    4.40238101571740
H         7.74216623036135   22.74473689309522    5.20754159937331
C         4.46865966668285   21.55161079354820    4.72943732434181
H         4.74617901020057   20.58775905744465    4.30479453869512
H         3.39348811318363   21.56883990387865    4.87928875892114
H         4.94349581779077   21.62951155724785    5.70847200283043
C         2.63704149056299   23.99146744635054    3.61535064066344
H         2.47667226782872   24.78726223180223    4.34535495997360
H         2.15123872318276   23.09470470503240    3.98874090013059
H         2.13567099987652   24.29166003917882    2.69251174682712
C         4.50976537762831   26.22998456191928    2.71272320003578
H         5.33374368269318   26.88552683178710    2.44815744235306
H         4.05802714106671   26.62404550540901    3.62530569980193
H         3.74966607252086   26.28043310883391    1.93128665424358
C         6.49731576801011   26.10975099774310   -0.08456067091176
H         6.80989587288778   26.40904804553174   -1.08799765764889
H         7.27058968722396   26.43966651344524    0.60258053781556
H         5.57458786704686   26.63983914629901    0.13668599069817
C         8.76784171374905   23.89709783633147    0.49806547035454
H         9.12368259224923   23.21188028568775    1.26871634876519
H         8.92124247820007   24.91661790456435    0.83682108903692
H         9.39425101279902   23.74537729042178   -0.38260768124709
C         7.75608437175805   21.23410622029353   -0.73047466031047
H         7.17634890966452   20.32005421056175   -0.82703234710553
H         8.52348278865148   21.09261817986198    0.02721446964577
H         8.26599674169996   21.40393999677022   -1.68161287218869
C         4.92690160547970   21.65283097535319   -1.91911406646107
H         5.61087258452526   21.42015898621275   -2.73628300223580
H         4.02015311670238   22.06460311442593   -2.35205820917242
H         4.68176348291359   20.71596208994352   -1.41707361697630
C         4.07494155911819   24.73698172093921   -1.35635951645892
H         3.34289551225904   24.06463022510199   -1.79593855637206
H         4.45719497764250   25.37957097771706   -2.15193170287668
H         3.56567260637140   25.37939775264009   -0.63626532421549
C         1.46496323880968   21.32884367225608    2.09618329601132
C         1.70105249054826   20.44044375631428    3.14057786077542
H         2.67775338693824   19.99841618293472    3.24855206973556
C         0.69073690993369   20.10431292952160    4.02223600874643
H         0.88836382602127   19.40596251148286    4.82177141113390
C        -0.56987921036843   20.65969913821883    3.88026230718035
H        -1.35943423824725   20.39844769695588    4.56735337678339
C        -0.81181204332498   21.54984293225382    2.84752997828138
H        -1.79252448807493   21.98408296385122    2.72669850715091
C         0.19736055898705   21.88845896884492    1.96397382028081
H        -0.01773470670253   22.57724452229299    1.16126174376605
C         1.90280192215953   21.81930737531007   -0.59378959227587
C         1.80146081753323   20.75836287817090   -1.48312304557134
H         2.33701157302328   19.84375508806835   -1.29472740313578
C         1.01985767676363   20.87590032504813   -2.61960954889058
H         0.94471518682962   20.04358381922496   -3.30265980332081
C         0.33552415318070   22.05084820991620   -2.88266985096119
H        -0.27581695173878   22.13560692059301   -3.76742949148412
C         0.44606988822658   23.12190129379134   -2.01093949301668
H        -0.07420693975760   24.04530091453412   -2.21642532719364
C         1.23114084761229   23.00856325731498   -0.87821804580129
H         1.33206392871984   23.85248251454967   -0.20584630953166

