34
CSD_code = BOSCOC | q = 0 | S = 0 | Stoichiometry = C11H14Cl2MoN4O2 | MND = 6
Mo        2.17263356239770    5.61179676379947    3.65715217504440
Cl        0.99470524639367    6.64353316760728    5.36765995320528
Cl        3.25120423948258    5.67138620858483    1.54797599144139
O         1.06164662610915    4.48438983560573    3.22057940470236
O         3.37045794512539    4.92493008622740    4.54871100288657
N         3.23550380613320    7.56370714519062    3.69703964787089
N         0.97594090903411    7.25723382696484    2.49013576041131
N         2.93698109961861    8.41819126562030    2.69450699052394
N         1.41807283736434    9.12097315788140    1.09603911771974
C         5.01139572296416    7.28652093024670    5.37265044308428
H         4.59636084574920    7.68884017081165    6.29739517664085
H         6.08667808792655    7.44021725686470    5.37357984378016
H         4.77913162992404    6.22016638945014    5.33999838236950
C         4.38878955823175    7.95866180149120    4.21342291239997
C         4.84818960804827    9.09147717076478    3.50989863059506
H         5.75588088277042    9.62875744845126    3.69398201781610
C         3.91067238460977    9.36236721153439    2.54437926753244
C         3.87988291590498   10.41856258084807    1.51195425248167
H         4.78042984089111   11.02196000037901    1.58241602953497
H         3.00405297740552   11.05195661247956    1.63741847865902
H         3.81630210549494    9.96905251000986    0.52312116940518
C         1.73401545865214    8.26397806057341    2.04013258704339
C         0.22812102176809    8.97515291573736    0.50863729982215
C        -0.09219667125652    9.92631572271355   -0.58943010088236
H         0.77343412961992   10.04539423328738   -1.23585371347413
H        -0.32166923263517   10.90334636906893   -0.16554725063015
H        -0.94507485088926    9.58355574676256   -1.16700006337452
C        -0.65809572509916    8.00666018162785    0.95448123367982
H        -1.64051743319675    7.91250368563905    0.52244252369837
C        -0.26100953529663    7.15420178000470    1.98587914941467
C        -1.17265804646247    6.15144564386656    2.57206252938006
H        -1.34061821041100    6.39178493846707    3.62451945614699
H        -0.68334747092603    5.17136749069266    2.56397860856633
H        -2.11889626544480    6.11081169074411    2.04158109250653

