37
CSD_code = BOSGAS | q = 0 | S = 0 | Stoichiometry = C15H11Cl2N5O3Ru | MND = 6
Ru        4.73912506175674    0.47221885907781    1.55658905973687
Cl        4.78043414954341    0.76035997631298   -0.81644986934232
Cl        4.77603534318960    0.69707434795490    3.93733115977086
O         2.35765243756139   -1.34020791465324    1.53244641136649
C         3.26033773107704   -0.64677361592484    1.54093398884303
O         6.58175561281614   -1.89283962716775    1.53068674599342
C         5.86425972020300   -1.00808695555760    1.53984351613007
C         5.83250699684598    3.09851333118442    1.60762942289784
N         6.83676854152292    3.98715005597271    1.62992674240831
C         7.93695485014102    3.24985891685103    1.61318129800405
N         6.25797731429919    1.83999353897695    1.57834598847128
N         7.58854557128060    1.93568737800473    1.58154918038988
H         8.17578725436348    1.11466810386787    1.56451599613854
C         4.40801585613089    3.33018352677500    1.60870388593019
C         3.82080177419247    4.59600755318981    1.63412852525375
H         4.43681811021886    5.48280364862056    1.65704038961067
N         2.51279907412422    4.75198162408339    1.63106615606756
C         1.77653349004483    3.65188905262978    1.60232142730933
H         0.70503707247335    3.78878387300168    1.59924146250765
C         2.33784614120698    2.38023201791992    1.57747024020420
H         1.71694514624531    1.49437397164828    1.55452644857280
N         3.65704605947259    2.21325958073875    1.58093202482611
C         9.28345889236250    3.76092850120425    1.62841269835935
C        10.40355943751013    2.92421056561749    1.57237975093294
H        10.29174158577448    1.85228837530422    1.51086780005119
C        11.66847555641446    3.45953813177509    1.59138012187581
H        12.54100884835213    2.82765773030931    1.54796984789518
C        11.86016577319054    4.84498076308233    1.66795135642592
C        10.74463866358582    5.68151673428116    1.72251442957043
H        10.85761050805218    6.75201777912312    1.78109717393981
C         9.47652337989704    5.14110628480131    1.70193063579461
H         8.60834081256212    5.77901068439107    1.74371139035211
O        13.14320468876288    5.25953225313433    1.68216975455994
C        13.41742536275693    6.64073050206669    1.76043433742622
H        13.01139070698806    7.17857014769826    0.89870080300642
H        14.50270034765246    6.72410429938588    1.75853059988464
H        13.02247212742805    7.07497600431785    2.68358909883461

