23
CSD_code = BOSJAX | q = 0 | S = 0 | Stoichiometry = C4H14Cl2N2Pt | MND = 4
Pt       -0.00000000403047    0.00000000244090   -0.00000000961252
Cl        1.50576462792954    1.73214028242797   -0.20419348242738
N         1.36109198258584   -1.28523567147411   -0.81200912284737
H         1.19335702235921   -2.22462608103012   -0.43747107209629
H         2.30444318293342   -0.98914001850162   -0.54168862096891
C         1.27161476674280   -1.32770129642433   -2.27946157878170
H         1.44041760677585   -0.31548800732353   -2.65775705329360
H         0.25797513712651   -1.63920957823388   -2.54734271390642
C         2.29183879851173   -2.28901034837933   -2.87793545955983
H         2.20230351958648   -2.30106238138034   -3.96015178404104
H         3.30453699407069   -1.98281697556642   -2.62272206110680
H         2.12906020050152   -3.30046026714275   -2.51066606401244
Cl       -1.50576462734443   -1.73214028228676    0.20419348433243
N        -1.36109198264056    1.28523567142965    0.81200912314748
H        -1.19335702289497    2.22462608143950    0.43747107339197
H        -2.30444318351659    0.98914001930933    0.54168862222858
C        -1.27161476617953    1.32770129579505    2.27946157923003
H        -1.44041760639450    0.31548800669649    2.65775705371970
H        -0.25797513648654    1.63920957749667    2.54734271430257
C        -2.29183879776629    2.28901034790782    2.87793546042046
H        -2.20230351873156    2.30106238084031    3.96015178489821
H        -3.30453699342401    1.98281697526723    2.62272206205258
H        -2.12906019971411    3.30046026669233    2.51066606493027

