69
CSD_code = BOSLOM | q = 0 | S = 0 | Stoichiometry = C33H32BrIrN2 | MND = 8
Ir       -0.31287608417497    1.11363867708234    6.46226495074030
Br        2.13075283136611    0.55863693031582    6.64730542169036
N        -1.10319641066853    1.66155196245495    9.32521121101572
N         0.50400207424371    2.96449156908094    8.73954304745872
C        -0.43672228155414    0.88210756695367    4.21100560000452
C        -0.12141256151363    2.28017767650146    4.44290637112881
C        -1.17222548032818    2.85070740499349    5.16416854855975
C        -2.13501888183427    1.80364649822882    5.44643745504432
C        -1.71455000172553    0.62312204598834    4.74069104393049
C         0.36789169698334   -0.00363940756659    3.31326420452282
H         1.42813175802586    0.05551713657013    3.55657106431792
H         0.24387165228198    0.30606781299900    2.27310250670759
H         0.05305967747134   -1.04154141629040    3.39986273163296
C         1.07426187450843    2.96010137256028    3.85747421882601
H         1.99185732989008    2.43721103502619    4.12846653321069
H         1.15379250321485    3.99145398673341    4.19645508018047
H         1.00324607289833    2.96314134169259    2.76828180441608
C        -1.37370395091305    4.29400544389882    5.50781818980405
H        -1.74537313749321    4.41366064064094    6.52547871033461
H        -2.10884550420546    4.73512409539939    4.83129322159543
H        -0.44838957868193    4.85888966647414    5.41371158674497
C        -3.52295008392081    2.05238942108527    5.95093052856234
H        -3.53053842074463    2.81218519749058    6.73141549208298
H        -3.96542496183856    1.13945432650612    6.34537664425755
H        -4.15679134181533    2.40632949203219    5.13436436298928
C        -2.53804973477517   -0.61154756055811    4.55283659768811
H        -3.13423361681114   -0.82889623183500    5.43740801967654
H        -1.91163834452343   -1.47754660866560    4.35159572937264
H        -3.21682675801145   -0.47626226367300    3.70795374442428
C        -0.84663945409845   -0.57317358433259    7.49215489573904
C        -0.41783174515633   -1.78832980969991    7.00388800295675
H         0.31587935704258   -1.82998456163668    6.21044992031549
C        -0.85720830513567   -3.01663207681640    7.52500824909650
C        -0.28267689999581   -4.23743675280218    7.08580653752722
H         0.45552998874673   -4.20679161967398    6.29778516133520
C        -0.59680307463552   -5.40141313615920    7.70483322313955
H        -0.09549565615946   -6.32184105473714    7.44087701687809
C        -1.61700409415395   -5.45425432008766    8.69064727980649
C        -1.90764243909678   -6.67789637108296    9.34733523467309
H        -1.30080782134241   -7.54033991698965    9.11021651522640
C        -2.89098634308272   -6.75606818866365   10.27698440402026
H        -3.07072038722232   -7.67127673875143   10.82284593850365
C        -3.76089917006498   -5.65600974171582   10.49296314246426
C        -4.88635010833917   -5.78311284750677   11.32567217524704
H        -5.02497857200416   -6.70767374756204   11.86839094614932
C        -5.80920458766636   -4.77606330520001   11.42305299819970
H        -6.67262368071854   -4.88164100755094   12.06354757163452
C        -5.65871654362214   -3.62863378264805   10.63991647312144
H        -6.43060812044951   -2.87226928980300   10.64815020776155
C        -4.55035606045163   -3.46633161094203    9.84828507332146
H        -4.48899636001173   -2.60628159955797    9.19985487354405
C        -3.53119199200441   -4.43673408594294    9.80495522765956
C        -2.33709901556382   -4.29263565020688    9.02013919163139
C        -1.83569115717498   -3.03357942357752    8.54862940340881
C        -2.17579959003072   -1.79529459772319    9.11782890077841
H        -2.77668525741799   -1.77468768154002   10.01497853421127
C        -1.70753417220130   -0.60601631549254    8.60979186718641
C        -2.15646497857943    0.67897336261842    9.26731713429645
H        -2.99443661660283    1.09985454092548    8.69542492916313
H        -2.50152844674241    0.48302706449038   10.28509409887859
C        -0.29496309049853    1.97074179837182    8.28820607035746
C        -0.80716435660330    2.43571054075877   10.41004748421279
H        -1.32827698839513    2.34785458840066   11.34088365745971
C         0.20645858457199    3.25397409118857   10.04179756580406
H         0.73051036734865    4.00574961724413   10.59472940752098
C         1.54934171851208    3.61791079122905    7.99931166252552
H         1.59629287701507    4.66857582427707    8.28263410673558
H         2.51121850969405    3.14223950615532    8.19795715066477
H         1.34735334693943    3.53441328062139    6.93401314592413

