52
CSD_code = BOSNOP | q = 0 | S = 0 | Stoichiometry = C25H23FeNO2 | MND = 8
Fe        6.95398822744909    8.51862974549936    8.85209342146478
N         5.22031981680568    7.37951114911912    6.81868890209034
O         8.43639587009890    9.28370474063158    6.49612252981030
O         9.32223750021340    7.63637857628844    9.68023429391903
C         5.09213101448302    8.50598003381537   10.19007489833745
H         4.18573358809776    7.94801102112067   10.01409751681466
C         6.20794320392870    8.04170585095596   10.93982210986266
H         6.27852181964657    7.08366428275497   11.42813184076489
C         7.08223940293188    9.13034294738096   11.12557975442605
H         7.98456868606534    9.12308392874860   11.71165951563777
C         6.54734103846235   10.24106738821466   10.44552884382895
H         6.95287355658401   11.23910462011894   10.45458503403286
C         5.29850724092868    9.86544926641060    9.89492352812439
H         4.59231002702537   10.53047896929263    9.42595747715459
C         7.84504173699253    9.08789634290653    7.47263179485016
C         8.43654468679803    7.36903041005341    8.90313828243375
C         8.32812424127751    6.15804083733282    8.05101111380824
C         7.15027504322663    6.13281804009346    7.37574355190910
H         6.86155860334751    5.31413454061122    6.72976874868749
C         6.30765482993181    7.28399134921843    7.57415085117366
C         9.38683447242195    5.16462210344879    7.94713565147167
C         9.54099407719850    4.41165977736517    6.77856912316210
H         8.88232090677731    4.58569014348865    5.94055778479416
C        10.54607957513794    3.47108121797081    6.67628875554266
H        10.65698094475284    2.90076673151388    5.76525060121343
C        11.41560757945744    3.26071574789865    7.73523845626472
H        12.20174375776144    2.52470843560358    7.65195802573390
C        11.27652142301385    4.00445446664315    8.89544491173395
H        11.95505235577835    3.84756716986104    9.72108855306178
C        10.27562104763360    4.95088488570292    9.00290225429796
H        10.17398565595883    5.53256985375900    9.90480329949639
C         4.37874136654618    8.55166315768857    6.85510093648078
H         3.55561118465709    8.42602962405598    7.56083090123816
H         3.96165116375185    8.73219006885163    5.86472422242632
H         4.98194082370665    9.40596936568638    7.16840765744925
C         4.82706452190340    6.37677547025035    5.87662285650788
C         5.33798687779117    6.42363540040189    4.57813182312433
C         4.93205414165996    5.45035289749547    3.67543260705449
H         5.31742177076139    5.47128705592858    2.66684610034607
C         4.04710793308028    4.45757091570789    4.05597753234852
H         3.74128647578363    3.70714132862716    3.34271663553215
C         3.56102117208743    4.41792091462483    5.34964111798125
H         2.87840673067594    3.63564092319584    5.64665294489035
C         3.94586774844468    5.37410845560842    6.28012836905818
C         6.30510095950403    7.49510094810581    4.17989398942720
H         7.12530541281608    7.56382853043337    4.89303029676018
H         5.81481725183255    8.46796055265295    4.15291945009651
H         6.71496716055751    7.29191915900252    3.19428791621412
C         3.42883607871974    5.33296253049397    7.68608475678424
H         4.20443228789304    5.62062389662813    8.39378614647592
H         3.07909309733265    4.33404963222491    7.93347112876622
H         2.59033391030772    6.02082459851286    7.80033118513316

