35
CSD_code = BOSPII | q = 0 | S = 0 | Stoichiometry = C12H18N2NiO2 | MND = 4
Ni        5.30689665455169    3.29957082608664    1.76207898287626
N         5.09978152089393    4.07827389097238    0.07815069172319
N         3.58755573322117    2.59726674752299    1.56699200799039
O         7.03784225786098    3.93228121173161    1.94354811191043
O         5.50346254676747    2.59058576056474    3.46137945599903
C         9.15465203124333    4.90213794773501    1.51729911842582
C         7.72984040486324    4.58915631390295    1.11397851693086
C         7.27207509417574    5.05051055865456   -0.11324512588531
C         5.97121971046080    4.81784880954580   -0.57752107653915
C         5.59448173160998    5.46040820351698   -1.88766418705193
C         3.75120546525286    3.95346945202239   -0.45920790639222
C         3.01928882407292    2.80624087605915    0.24182799106789
C         1.58634808786979    1.26286866373178    2.05018846806091
C         2.92713235544537    1.84213704825751    2.42129654523560
C         3.41311192799409    1.53738708578774    3.69929193350835
C         4.66546497155175    1.93708614967095    4.14648347483417
C         5.09113136555358    1.54842521710723    5.54587451029318
H         9.35698348959520    4.46694874080621    2.49183668512007
H         9.84882244339779    4.49424895224062    0.78606968178651
H         9.30004280124975    5.97914070664119    1.56522186797855
H         7.94287668677455    5.62697550579710   -0.72886566643397
H         6.40606487467062    6.08526028384059   -2.24710642723234
H         4.70449452436051    6.07724561694235   -1.77181955057629
H         5.38664298482954    4.70141280567811   -2.64169140039538
H         3.21038693683106    4.89545021097939   -0.28876810262809
H         3.76989873597327    3.76215506066183   -1.53868606253447
H         3.13124877279852    1.88338678531613   -0.34526955780117
H         1.95050487865045    3.04394261034667    0.30162661127544
H         1.65798705727805    0.68598234110093    1.12929242610879
H         1.22590425170125    0.61221586879930    2.84077744926398
H         0.85431116883873    2.05590117595167    1.89847409927286
H         2.79321758616576    0.95392722438311    4.35995625810780
H         4.31322484795525    1.79643035088614    6.26342698328970
H         6.00884745332017    2.07022706877632    5.80204159140562
H         5.26974982222140    0.47559392798255    5.58853160100463

