70
CSD_code = BOSROQ | q = 0 | S = 0 | Stoichiometry = C30H34Cl2NOPRu | MND = 9
Ru       15.83228753266697    4.90228366557091   -7.49660104017981
Cl       15.95190483989878    5.32261400981875   -5.17283319088184
Cl       15.75147854534799    7.23528221563898   -7.83491722368607
P        13.61097091232171    5.09585546151586   -7.01384990452457
O         9.62654293407325    4.11546622579669   -5.29660818436032
N        11.66885276184975    6.61189499827841   -5.72787329046131
C        13.00678339132216    3.72021382226664   -5.99658835582142
C        12.97306136674685    3.81096047687474   -4.60626473469367
C        12.57596773791779    2.72135563394796   -3.85049733289297
C        12.21915688231813    1.53520653791775   -4.46945657183550
C        12.27993056194787    1.42941614906877   -5.84992244491090
C        12.67964624987231    2.51216551510234   -6.61021840986559
C        12.51108090913035    5.13547144580834   -8.46292475894660
C        12.97630258775810    5.87830292681333   -9.54571689365516
C        12.18857848938448    6.04222658284756  -10.66907858600128
C        10.92961908788371    5.46582549679152  -10.72030385217849
C        10.46341857650426    4.72722698322691   -9.64592267216031
C        11.24653711629778    4.55881601697577   -8.51818789211085
C        13.04694361758126    6.63608022954991   -6.10008119043534
C        10.61298539375992    6.86215273502473   -6.58485764412791
C         9.34019923546283    6.32639079939702   -6.31383442110871
C         8.29047429782154    6.60523613085329   -7.17494986097348
C         8.46067046352695    7.40794990163392   -8.28783159727203
C         9.70673920596646    7.95535644884181   -8.53901318031059
C        10.76683916467968    7.69267795826516   -7.69719675147641
C        17.00644690987382    2.94373515380967   -7.30041525758760
C        17.93239913789318    3.98320335155618   -7.61082663910797
C        17.75678709124699    4.78942958630392   -8.73316790265380
C        16.63989590985032    4.60417380343835   -9.60033547325422
C        15.73770969418916    3.56590399736503   -9.31116749345040
C        15.92590912388349    2.73487324143803   -8.17367176847915
C        17.28911039835463    2.01221034394085   -6.14606950683502
C        16.04714381773408    1.72526799336636   -5.30346389237565
C        17.89701672770462    0.71608989499004   -6.69446459394393
C        16.49422695427976    5.46799152284662  -10.81555488314433
C         9.09976118140498    5.42066818492683   -5.12882622899807
H        13.29627190715277    4.71918937179866   -4.11910102128201
H        12.55113419543083    2.79802775166829   -2.77402128029170
H        11.90560310100573    0.68914802158318   -3.87729125692267
H        12.01862223356859    0.49928625898486   -6.33315546375704
H        12.73955581929617    2.43206446702442   -7.68767252048591
H        13.95217265183412    6.34355027856563   -9.47824667650926
H        12.55246123617352    6.62558153051374  -11.50227434839204
H        10.30942352474799    5.59560342010026  -11.59474898623960
H         9.47893305683083    4.28540668146631   -9.67784488187741
H        10.85850690091334    3.98673936498913   -7.68890313355118
H        13.27418866899128    7.47348582355512   -6.76485289595981
H        13.68274810524242    6.73787442118413   -5.21366679014679
H        11.46206930478090    6.01235675832881   -4.94449784250612
H         9.49279743195087    5.87463243787191   -4.20453676594766
H        10.57764123504526    4.17070314303560   -5.44984691255981
H         8.02653380779599    5.27185179444908   -4.99430573993296
H         7.32035159952139    6.17755181977004   -6.96636524272444
H         7.63005084272296    7.60722732693484   -8.94721323337506
H         9.85751814121256    8.59369314383164   -9.39676634342792
H        11.72708007873913    8.13258155321819   -7.91170124207307
H        18.80592509921332    4.11579965187806   -6.98070075240103
H        18.48929548011449    5.55233785137868   -8.97674314994471
H        14.92564552731039    3.35324505734115   -9.99977804404321
H        15.26056319804673    1.89437212250383   -8.01652113542499
H        18.02721529367566    2.49490531604559   -5.49583144903708
H        15.60211581028138    2.66150296550048   -4.97195047855133
H        15.30331603368069    1.16072256439474   -5.86114582069534
H        16.32419802592118    1.14664624674972   -4.42596927444352
H        18.15849219286463    0.05350346137312   -5.87331115541397
H        17.18564985778289    0.20273973119642   -7.33875987712184
H        18.79688020087532    0.92385513578317   -7.27074584431180
H        15.60762942031275    5.19698635887158  -11.38467861020041
H        16.41225934648584    6.51383369522039  -10.51386257196974
H        17.37197186205309    5.37021903108402  -11.45489563371784

