114
CSD_code = BOSTEK | q = 0 | S = 0 | Stoichiometry = C39H66F6P2Pd | MND = 4
Pd       24.16199376066392    2.33754936226955   11.47408061075073
P        22.36227330057291    3.15552719800394   10.16675000550590
P        26.23034559385303    2.54986913356677   10.28727307938100
F        25.66469140993839    1.97519901104954   13.91046030158115
F        25.22582254124815    0.08367217454054   12.90087930615758
F        22.57664542158320    0.51143739696853   13.13322431648588
F        21.74411152455709    3.02232238666805   14.11527414073803
F        23.24100090116531    2.27442853876997   15.44773520596396
F        23.77114230097231    3.74579943875221   13.95752749455714
C        24.81917172043195    1.37003460908253   13.02989106198389
C        23.40858767410578    1.60753838106239   13.15872607518327
C        23.02848053980327    2.63325706054492   14.16843336211384
C        20.75383227487360    2.55407100690729   10.91019726197189
H        20.93218829776072    2.69925083088967   11.98355114972781
C        20.59831745307529    1.04741930389637   10.69759520344767
H        21.55520877816579    0.54421166419796   10.88511524949876
H        20.29700854108664    0.84368928311834    9.66800470859058
C        19.52302438474371    0.50523755682681   11.63383895500441
H        19.40596473261737   -0.56966207013239   11.48231876839073
H        19.83048198128740    0.66400317050191   12.66873592277842
C        18.19845381142092    1.21756117841381   11.37392432752199
H        17.85943441218404    0.99331003871589   10.35881909518851
H        17.43744639355237    0.85255802377417   12.06627915491787
C        18.35748011811114    2.72748673507596   11.53096489135770
H        18.63282689502354    2.95491049355307   12.56330415352334
H        17.40789240858861    3.22480331377818   11.31966510632211
C        19.43876354039422    3.26400371282426   10.59102583686325
H        19.52983158895047    4.34167874703801   10.73221776059365
H        19.13278131033992    3.08272203789738    9.56138661467448
C        22.17557795557072    5.00754597912240   10.24026100154741
H        21.25526385165384    5.32149943402161    9.73594525867178
C        22.14559164432278    5.40166187365676   11.71731766604064
H        21.28587165757165    4.95778320227764   12.22122351366781
H        23.06055061115031    5.00918942324247   12.17880643177671
C        22.11326807435174    6.91514635052570   11.89979389428198
H        22.09411989515263    7.15292523500819   12.96471780884562
H        21.20287609927933    7.31922624396021   11.44923152659956
C        23.33250787491913    7.55090677420295   11.24335608284949
H        23.30321400133318    8.63589663753651   11.36094538871676
H        24.23705737794483    7.18161929302381   11.73138257726147
C        23.36850077819234    7.18594000056144    9.76432963137694
H        24.25346228992419    7.61819278178610    9.29146696911811
H        22.48846028918186    7.60176235922319    9.26689320300829
C        23.38237530272109    5.67110345635355    9.58098768764322
H        24.28340751564252    5.25195400906464   10.04500767443611
H        23.40238572379591    5.44753914342453    8.51202757094728
C        22.32499933763199    2.79696626702640    8.33258501779619
H        23.11051593637080    3.45034949508598    7.92792972284834
C        21.03120663670854    3.09649193171973    7.58299682480709
H        20.70913663560819    4.12381960878950    7.76318342921250
H        20.24414454251909    2.42280980507672    7.92115905165461
C        21.24125630032777    2.87257226837590    6.08595067344868
H        20.31710395318771    3.09382057870786    5.54761797313223
H        22.01292857488851    3.55306009969862    5.71717093611486
C        21.66548922789686    1.43078158837732    5.82102220506375
H        20.87102992019592    0.75501312804199    6.14598468497454
H        21.81581278192471    1.27754313432136    4.75040462298921
C        22.95064368601026    1.10705512844450    6.57805730916320
H        23.75648693503138    1.73314941930127    6.19006003239846
H        23.22909290881751    0.06460817641439    6.40998372950406
C        22.76558702898176    1.35537317452709    8.07322633276823
H        23.69874141648272    1.17268257503254    8.61675432741773
H        22.01829776232024    0.65792392223410    8.44955632896325
C        27.28440565675960    3.39340125982855   11.58149459061647
H        27.31162573978805    2.66421793932741   12.40237677064902
C        26.52182962593542    4.62014289019262   12.09715618384707
H        26.50974484748067    5.40472220980512   11.33621516793324
H        25.47647282277488    4.33350155533393   12.31094571255673
C        27.18495667859655    5.15843134399695   13.35967450977187
H        26.64746729313011    6.03869584188131   13.71731474303350
H        27.13732720042809    4.39789477958896   14.14076927494407
C        28.64139938814631    5.51408160117868   13.07291777561650
H        29.12285229009795    5.87484398140257   13.98367321022708
H        28.68030914541153    6.31893782534081   12.33399621465594
C        29.39498125852861    4.29964329687090   12.53780041071017
H        29.40273709192339    3.51770869045947   13.30026429043010
H        30.43184647362225    4.56936709093399   12.32400616733974
C        28.73292228892805    3.76123920782400   11.26833670120517
H        29.28542082920989    2.88672492914471   10.92076920997931
H        28.78626058725067    4.52504071735634   10.49201930300192
C        26.85716699736323    0.78208862238242   10.34136650524924
H        27.04389720575999    0.61769997949858   11.41195540873421
C        25.73433662421291   -0.17783697268533    9.92350436384344
H        24.79074988333803    0.08893458280926   10.43879431571784
H        25.56325132749777   -0.10606007574594    8.84629242973711
C        26.11894449300832   -1.61526790601834   10.25985390547770
H        26.24327731352669   -1.71330603790738   11.33915236897584
H        25.32033220825476   -2.29314598081577    9.95236703561549
C        27.42046387809086   -1.98841662265227    9.55595321202659
H        27.70878021932544   -3.00710691526609    9.82179096720952
H        27.27109232359597   -1.95584851476233    8.47342098962801
C        28.53331022793478   -1.01867678496331    9.94171952147491
H        29.45524609333578   -1.28193424334997    9.41797195403778
H        28.72383077917004   -1.09715586252448   11.01433367079933
C        28.14310126644953    0.42005636965208    9.60024421838152
H        28.00443122387904    0.49924709506382    8.52107953627768
H        28.95698520134405    1.08770822450491    9.88778201787812
C        26.92589822237772    3.19159173893628    8.66705381465709
H        27.99123418940295    2.93516971167881    8.68093097285272
C        26.25335883693283    2.51310804345459    7.47674352257080
H        25.20431545485046    2.81137935737162    7.46352047895784
H        26.29028740606507    1.42799446790063    7.56928620973969
C        26.91850525695227    2.93137067348222    6.16789359209263
H        27.96467549455118    2.61568800679691    6.17577617637175
H        26.42772568784129    2.43383490127337    5.32805361660339
C        26.84821631398511    4.44424616235974    5.99133593219261
H        27.36430469907998    4.73946439702339    5.07566349031673
H        25.80332313659527    4.75087331998509    5.89908074606974
C        27.47343390707852    5.14211711336403    7.19430351346620
H        27.38703088947211    6.22518580800537    7.08278742473153
H        28.53680945658108    4.89543080843162    7.24511291268855
C        26.78552668441342    4.70166896900799    8.48537404578047
H        27.21900140002325    5.24377505022339    9.32462714574966
H        25.72842834110899    4.96052513628834    8.42940753774172

