94
CSD_code = BOSYUF | q = 1 | S = 0 | Stoichiometry = C48H40CuN2OP2(1+) | MND = 4
Cu        8.87754644303886    5.06078017449208   13.17573471870296
P         9.70093106792967    3.00558475674564   13.97180295100724
P         9.35300505016391    5.26213179619023   10.94892043569310
O        11.30792484687517    3.72693279446856   11.97043531822588
N         7.01853369913251    5.66084670398154   13.89466145478291
C        11.03429558702378    3.19777425204506   15.19900280853244
C        10.67250625939243    3.71800308003757   16.43999745211220
C        11.63102604907696    3.94610173489138   17.40794485507890
C        12.96308153167578    3.67102464955532   17.14146790682974
C        13.32925384293343    3.15976778160224   15.90750376455290
C        12.37150499024122    2.92364850660670   14.93640650329667
C        10.40858972933422    1.78517276553773   12.81526344756556
C        11.20346869976828    2.37251001347313   11.82258030765468
C        11.93389400066880    4.52506266762166   11.03779046919912
C        13.28804952279433    4.49270565773346   10.76364708804385
C        13.80770422308593    5.42010203027396    9.87192246547706
C        12.98825077897971    6.36800403895378    9.28215470472082
C        11.63138782181998    6.40364295903941    9.56440223905489
C        11.09590277672168    5.47000646332315   10.43740290433361
C         8.52406410587814    6.55337609672854    9.97254138057833
C         7.66159443552935    6.29843184197380    8.91332455450272
C         7.04369411666237    7.35273818830138    8.26298069020414
C         7.27220729654306    8.65659967254252    8.67024951522009
C         8.11266379624935    8.91290879354619    9.74313153307265
C         8.72850148905587    7.86478493548220   10.39895231720967
C         9.00893224216680    3.71639470609732   10.04093364610815
C         9.48843702911937    3.51687120674716    8.74867925726340
C         9.26737903759498    2.31069873196460    8.11071824235526
C         8.57574591260984    1.29654825131697    8.75493355154729
C         8.09948063900916    1.48987687465470   10.04045385506431
C         8.31684018832196    2.69553703317891   10.68195304761270
C        11.74436069773965    1.61625575985056   10.80030106940438
C        11.49276935212002    0.25280516185009   10.77767673160626
C        10.70711885765150   -0.33896131808844   11.75105139141461
C        10.15230540752841    0.42546051876960   12.76545767060214
C         8.52937356044740    1.99188450769015   14.93225736970818
C         7.17169984026227    2.24121691528160   14.76898922601911
C         6.23518777500092    1.50647667050765   15.47385263708864
C         6.65324041294880    0.51704073819572   16.34798293573176
C         8.00648797937568    0.26651663909941   16.51844652693957
C         8.94514021806853    1.00033914185928   15.81742028058152
C         7.11956712581918    6.24658622132097   15.09543477065017
C         8.48332326012957    6.47875166593712   15.59147672379904
N         9.45857577571850    6.33470466220648   14.68432066563425
C        10.71710747925871    6.60954934469008   15.00086714795679
C        11.06491389988745    7.02880223021471   16.28287185672279
C        10.07807377606540    7.13753741290966   17.24494141745592
C         8.76443108374433    6.86395194542658   16.89849893909037
C        11.74777097793607    6.46746664024182   13.93280662431220
C         5.98968233147133    6.66227966859301   15.79364288416025
C         4.74099950936862    6.45589936038746   15.23146347665500
C         4.65750484976175    5.87274255729601   13.98093279588901
C         5.82899304634313    5.49417732969217   13.32853579926825
C         5.76908170232028    4.88634152760190   11.96683805070369
H         9.62952187600428    3.92794323369534   16.64329147949000
H        11.34058627675501    4.33710777355981   18.37172182114583
H        13.71329852539154    3.84882906875690   17.89658431545058
H        14.36588675843966    2.93759705200645   15.70181403912614
H        12.66441905747082    2.51161405233091   13.98167672328199
H        13.92573325789009    3.76391814741681   11.24118794290486
H        14.86192660726049    5.40290857494040    9.64346393990526
H        13.40787688870885    7.08518466524340    8.59381227621664
H        10.99435654190528    7.14317466786774    9.10152664230485
H         7.47648424702783    5.28208033115580    8.59517221311620
H         6.38138537500225    7.15439133486488    7.43369536095300
H         6.79036593667500    9.47413676040105    8.15628837478591
H         8.28193259881187    9.92871362103674   10.06760066388495
H         9.37701465042369    8.04823969675466   11.24730911044898
H        10.03427974697037    4.30590974462438    8.24904721379350
H         9.63916456411960    2.15884371491613    7.10860289589712
H         8.41042721152650    0.35522757112627    8.25396305072920
H         7.56523761866202    0.69993833166228   10.54634364412246
H         7.96421458691835    2.84713739755311   11.69564937675686
H        12.33327932450236    2.08121383036568   10.02406459437858
H        11.91059563430604   -0.34621777294020    9.98361735518077
H        10.51603756356602   -1.40008753950690   11.71616120223235
H         9.51886918911063   -0.03394013316033   13.50954923883920
H         6.86034994825681    3.02549018428142   14.09133839858573
H         5.18159231848202    1.70656380262260   15.34540394072642
H         5.92571377691881   -0.05744309219831   16.90068775064837
H         8.32991831112299   -0.50373375063628   17.20240155488707
H        10.00074646261724    0.81169530413495   15.95709877491968
H        12.09370728860866    7.25541396929218   16.51237865606472
H        10.32276964645453    7.44167328242945   18.25110754399305
H         7.98408617304016    6.94173580923766   17.63680268204998
H        12.33736489204033    5.56717101457256   14.10231474010756
H        11.26408692887450    6.38506935864496   12.96161808057978
H        12.42344659556025    7.31992443931188   13.93510223652097
H         6.07678650179358    7.15477563015507   16.74700023961365
H         3.84922320234025    6.76191468905937   15.75618713957993
H         3.70354683214743    5.71387871807163   13.50424760211888
H         5.03661420640473    5.40648101643896   11.35408188885309
H         5.46933678273818    3.84011703325691   12.02823736713243
H         6.74450996692683    4.94431400594443   11.48608755169215

