63
CSD_code = BOTBER | q = 0 | S = 0 | Stoichiometry = C27H29ClN3OPPd | MND = 4
Pd       -0.88451634314607    3.02373321038845    2.99839441544658
Cl       -2.41757669918209    1.68393488835459    1.76612939551755
P        -1.07190723145051    4.39344555141150    1.24608469939086
O        -2.80334102450623    4.25442800217531    4.72467555569654
N        -3.57003601054999    4.62836608261996    2.10656473184405
N        -3.62109489136293    6.92118744256705    2.42654805262020
N        -0.74154420930741    1.58898589444616    4.53483363552803
C        -0.49114078468296    6.12362016142570    1.24974550801272
C        -0.18336338328014    6.81979402910397    0.08814034339821
C         0.15988235583104    8.15849518492063    0.15792666261698
C         0.19433115443472    8.80786702205762    1.38064557620294
C        -0.09863476213238    8.11272268496648    2.54293378063868
C        -0.43481310316284    6.77488013973025    2.47745038720782
C        -0.33587592373155    3.60146561008386   -0.20669429334804
C         0.64795833867825    2.65046503785123    0.05290843664119
C         1.23475128489000    1.95727871894571   -0.98881759919620
C         0.83494846607590    2.20504384997276   -2.29283047256982
C        -0.15754868733470    3.13596167525636   -2.55267672414026
C        -0.74902353357791    3.83332337095189   -1.51382881624659
C        -2.88498266588947    4.66556800360862    0.84193962969369
C        -3.44013861827408    5.71134833893795    2.93624478832578
C        -3.13217908508748    5.52291361591488    4.30586558257206
C        -3.09460877734125    6.62232345722523    5.13400460139025
C        -3.33751153029930    7.88193192648940    4.58912286057795
C        -3.57073408666069    7.97109434583358    3.23212775103858
C        -1.99793382734975    0.95748155724329    4.92596219424925
C         0.14737726417461    0.58099497976719    3.95307113622497
C        -0.09314734295093    2.22670517500739    5.68986742074974
C         0.93916865120968    3.20636387522161    5.19307643664357
C         0.71327674551525    3.78963371719491    3.93826864145422
C         1.71297376949740    4.60639193374516    3.42103473384380
C         2.85738520861120    4.89375270972249    4.15077724361890
C         3.03572853215792    4.35433904190844    5.41178618267906
C         2.08035987337828    3.49496759168053    5.92610453358705
H        -0.20136734369369    6.31490959761382   -0.86683992805230
H         0.39996152379436    8.69782707162771   -0.74689131214706
H         0.45688060767715    9.85440860991739    1.42814731997477
H        -0.06295839866018    8.61328885576939    3.49919501439283
H        -0.64244988431783    6.21176346549120    3.37987061200519
H         0.93011139270852    2.45286731515770    1.09074480006771
H         1.99528606958348    1.21667399550897   -0.78854545591050
H         1.28746428381337    1.65985624080749   -3.10804443960544
H        -0.47929466104198    3.31178269203931   -3.56893721518425
H        -1.54236069183393    4.53993748466468   -1.71479540502286
H        -3.04838620003415    5.63844239843924    0.37164110741520
H        -3.24526679082502    3.85007941361290    0.20973394550312
H        -3.43858186452645    3.72432221864548    2.57109407314422
H        -2.53992694992209    4.30229535790698    5.65320034575846
H        -2.84400795847059    6.51174727939534    6.18209816194083
H        -3.31550241277427    8.76221771795032    5.21086452629934
H        -3.72406766347624    8.92639272675483    2.74922620089395
H        -2.69477010542498    1.71129535787966    5.29644778288033
H        -1.83157666217926    0.20140683651848    5.70622996175985
H        -2.44937134610238    0.47949021983282    4.05563533429054
H         0.29798028340003   -0.25609327144592    4.65118913945774
H         1.12142669397255    1.02628576158308    3.72660135106284
H        -0.29652580676952    0.19406554086534    3.03077637355231
H         0.35647305561334    1.46626355212558    6.34956553070185
H        -0.86037394580128    2.75457517988060    6.27064965967572
H         1.60828283697518    5.03624457768970    2.43040825036141
H         3.61346559614780    5.53946137585562    3.72674198793932
H         3.92296570875101    4.58251480922366    5.98427933041807
H         2.22600151100889    3.03796879245502    6.89632593241155

