73
CSD_code = BOTBAP | q = 0 | S = 0 | Stoichiometry = C33H28ClCoN4O6 | MND = 6
Co        2.11828595062693    1.60460669661999    7.17768323647438
Cl        7.62883462791356   -4.13861065294678    9.81588492695743
O         2.47891964608984    0.02958819299546    8.22361363542580
O         3.57148780780903    1.14803986805222    6.09352500842555
O         5.91082277242666    0.30447789219134    5.33422149246288
O         2.13250823068339    4.47043766503670    8.59349640419629
O         3.26281074287122    2.57114249386104    8.28610375377719
O         1.03853974251325    0.24582353701367    5.91711980300612
N         3.04851006879954   -0.48961741689432   10.42203563168782
N         2.63366061949494   -0.14618128326948   11.67540609364153
N         0.60501292920962    2.04339305421251    8.22536296834052
N         1.70207677321586    3.07186310143826    6.15833093141466
C         6.28492781435309   -3.06115335461052    9.98737429275421
C         5.87232007628885   -2.30334989441837    8.90302323333991
H         6.39244737349584   -2.37898709134687    7.96132986020616
C         4.79665801682301   -1.44575250167474    9.03114564118370
H         4.48114813036327   -0.84437067370307    8.19362133508690
C         4.13269523373215   -1.35126845520153   10.25226067915003
C         4.56217771256995   -2.10844706349336   11.34029943203603
H         4.04592561357860   -2.00466425162109   12.28074680282749
C         5.63772804879449   -2.96417197412998   11.20932834616998
H         5.97324109086022   -3.55356850933390   12.04823078397694
C         1.66443518220182    0.71947720980143   11.55590336674560
C         1.38581110954238    0.97713350528470   10.17559903043402
C         2.33379867496409    0.17580825448182    9.47307059941762
C         1.05547655956300    1.32096526858360   12.77077494178193
H         1.66326235516887    1.05441382514722   13.63125791778174
H         0.04387130436168    0.94988305359924   12.92527387766247
H         1.00649020377197    2.40388625667441   12.67604363539410
C         0.49083407153023    1.84653247177052    9.52029732844359
C        -0.51077336310974    2.55888985392049   10.34592212691396
C        -1.51391498084753    1.85889292159694   11.00793028503523
H        -1.58352306241920    0.78648909196451   10.89050441945297
C        -2.42879042523691    2.53921248349185   11.79150720169166
H        -3.21275664419026    1.99461132637187   12.29730746176139
C        -2.33791623588019    3.91456143103104   11.92858167003584
H        -3.05079919275310    4.44251066875877   12.54454233358309
C        -1.33525291262918    4.61135884530391   11.27384947193291
H        -1.26391645339909    5.68339722992122   11.37996469571044
C        -0.42433665597714    3.94157043062929   10.47724777409219
H         0.35629296350992    4.47356198480387    9.95390667979521
C        -0.23061606321515    2.88090517719983    7.49209344118639
C        -1.58117071598633    3.11487095252747    7.72543828179463
H        -2.09529944697486    2.60541073078443    8.52376264329071
C        -2.28393901322089    3.98105213708832    6.90610463254042
H        -3.33309606967185    4.15217338143019    7.09355870689090
C        -1.65669850717384    4.61467397929031    5.84670567079612
H        -2.21241373105005    5.28908642816229    5.21316257691869
C        -0.32491708420890    4.35890193752871    5.57256990855141
H         0.13829215485601    4.81432635139150    4.71080189710557
C         0.39144235333254    3.48235553716050    6.37798436022132
C         2.53982060277474    3.73583839363162    5.42246521686202
H         2.23003955649915    4.69152642146590    5.00475884984042
C         3.84902701644410    3.30435732186147    5.09618817933698
C         4.70747096762446    4.16375480971806    4.37548404379044
H         4.36071326582199    5.15777980079081    4.13496360000960
C         5.95394239346547    3.75408348361631    4.00208087130031
H         6.61272049457512    4.41647614681751    3.46234762178477
C         6.39611265029034    2.45892834688553    4.31101308582473
H         7.38663575172133    2.16456227714844    4.00119752036801
C         5.58891521145339    1.58695802703096    4.99810794071766
C         4.28636225239316    1.99468538190248    5.44438773732303
C         7.19951781531401   -0.15974422595043    5.02542823189829
H         7.24448832457269   -1.18069099416819    5.40125842660706
H         7.97285273676026    0.44011481380711    5.51658640900013
H         7.37914774615485   -0.16653177946160    3.94450316053293
C         4.22739253092161    4.14198282944090    9.71792574111074
H         4.17221637155533    5.20790635639775    9.91697863962609
H         5.17875290402771    3.88280448377258    9.26353867917651
H         4.12421440085244    3.58852806699085   10.64885372763476
C         3.08663953274387    3.73632446311010    8.78681330907728
H         0.94213015578728   -0.52746659994918    6.48791332757572
H         1.74217192087682    0.01648007065957    5.29389445110019

