43
CSD_code = BOTGAS | q = 0 | S = 0 | Stoichiometry = C20H18FMnO2Si | MND = 9
Mn       -3.46997230023913    0.06766541649212    7.37273747576384
Si       -1.60500832461990    1.67509731477862    6.96296569206634
F        -2.12424580553056    2.91806583771777    6.00887037784754
C        -4.12323823704666   -0.45887199782141    8.93071216287114
O        -4.67030781660179   -0.78439429753872    9.89068088525453
C        -4.08468121503233    1.59197452155283    8.04923268909755
O        -4.63309839975720    2.52039763221764    8.45421631180322
C        -5.27200777188707   -0.52245249011066    6.41896593440149
C        -4.38302199415185   -1.62325462026781    6.43144409598936
C        -3.24964821725321   -1.27222972599598    5.66325235456615
C        -3.44722451341221    0.03745665762211    5.16968349785671
C        -4.70057927006661    0.51117509183512    5.64019809224409
C        -5.38410490284544    1.75995065977962    5.18040762498645
C        -0.17401832885542    0.96713417339299    5.92498358539192
C         0.64789778980750   -0.03604456588998    6.43375730647406
C         1.69767150409419   -0.54049542654506    5.68920235690627
C         1.94480641013220   -0.05281738631844    4.41604597396043
C         1.13890489312385    0.94567894418667    3.89690780440852
C         0.09036873141980    1.44967163827482    4.64587321136729
C        -0.92816846773521    2.55410386733520    8.51733907094101
C        -0.01172832205253    3.59487186819001    8.39689257867181
C         0.46942823729876    4.24955575014332    9.51661514515259
C         0.04552426453174    3.86747291077532   10.77797424792485
C        -0.86042723393155    2.82801477213284   10.91408551961681
C        -1.34259157341034    2.17713930982780    9.79328655472018
H         0.45534245897169   -0.42047095501042    7.42441294391330
H         2.32563552981603   -1.31754955930551    6.10041924621331
H         2.76262662524902   -0.44873920586652    3.83158996700022
H         1.32776383190607    1.33281226168935    2.90576832814300
H        -0.52801646494908    2.23399906100650    4.23536558040079
H         0.32004382298280    3.89426593812878    7.41404194328159
H         1.17604677525511    5.05916235464778    9.40574458958841
H         0.41958917860623    4.37842516417420   11.65312744323212
H        -1.19295307315994    2.52667633308103   11.89645649564213
H        -2.05519377884826    1.36030583366444    9.89199555353190
H        -2.20418496911815   -0.51975158998109    8.00045665414377
H        -6.27858703759263   -0.52147826024258    6.81660541605165
H        -4.60034552037962   -2.60806440786679    6.82413611334653
H        -2.44951791705347   -1.93931709224232    5.36992492285117
H        -2.83988971078563    0.52243350995839    4.41780762033012
H        -6.15556241575380    2.07113618659423    5.88376669922791
H        -4.67224182069988    2.57556111674201    5.05956521177657
H        -5.85968465042545    1.57742745506253    4.21338472104229

