109
CSD_code = BOTGUP | q = 0 | S = 0 | Stoichiometry = C50H54N2O2Ti | MND = 6
Ti        6.70895236417120    3.55431065412077   11.71972223710016
O         8.29120371670551    3.14825770641015   11.26978419041554
O         6.48158071943111    3.94090573504862   13.37305472539961
N         6.14664496685150    4.91721923584330   10.55807270233699
N         5.29929006896122    2.40883644608511   11.17185114774995
C         2.93763276131258    3.46434218542810   11.36541357830817
C         4.36907490006492    3.41940818916337   11.08821364697414
C         4.80278702966514    4.70661027561318   10.74924541801632
C         2.54703019913666    4.80915135386492   11.12420371962349
C         6.61516716324930    6.01046375369389    9.82502639763425
C         6.48156760804935    6.01356445666970    8.42559570908106
C         1.97839992849905    2.58096579731499   11.79745947790894
H         2.21559476134976    1.55026798765026   12.02271782061774
C         3.66099615054853    5.61017928573879   10.75362097401928
C         4.99399538713609    1.06639785956881   11.01966045431216
C         7.70352608398537    8.15404336551011    9.72159074783749
H         8.18993653327913    8.98663124296080   10.20600138339533
C         5.87962707015095    4.82018290413937    7.71894800196161
H         5.80575878658289    3.99989939050017    8.44760763022122
C         1.25147241102804    5.28716290772721   11.27089242003856
C         7.23459077506168    7.09093067543596   10.47718547427051
C         7.54006903463945    8.17612002197995    8.34793245254932
H         7.89168091851992    9.02212784855176    7.77563299543964
C         7.39403349776267    7.04701346859023   11.97966119516065
H         6.58581482542349    6.41880220605568   12.38465024423929
C         6.93374476536591    7.11121880794779    7.70906305789700
H         6.81876364726967    7.13471443296485    6.63572292093525
C         3.77167574939644    1.49275657547526    8.80387913870495
H         3.99379918427511    2.53220202646110    9.05996826500207
C         4.23286380780899    0.58973005623685    9.92951743797512
C         9.05526418025931    0.96352338912778   10.63000590077654
C         0.28453976652310    4.34318407645352   11.69774950352060
H        -0.74182691140413    4.65337427412510   11.83197243169728
C         3.44475035577940    6.94514525415968   10.51220962953553
H         4.24973771607127    7.60852089418928   10.22996012481147
C         0.65605208561142    3.04734015131183   11.95332945351969
H        -0.09235584396828    2.34297012398594   12.28962368494177
C         2.13304848886436    7.44669481991601   10.63881218192829
H         1.97238778552537    8.49778946621320   10.44270682276752
C         4.45928122051410   -1.66676685106364   10.76573714317178
H         4.23908515185313   -2.72006259481011   10.67488687538273
C         5.52573530158528    0.14058105001770   11.94763840830299
C         9.81607491991866   -0.14251083428431   10.98619732223652
H        10.67001430050734   -0.01910549833752   11.63793211337411
C         5.48964893271465    5.66174230851994   14.72454437380164
C         1.06428082884798    6.66645808545579   11.00301684067309
H         0.07816545606764    7.09891536273719   11.09517795891100
C         3.97364535221064   -0.77009288857511    9.83554159806134
H         3.38612317966041   -1.13987223805338    9.00804234951058
C         5.24399408002774   -1.20614866063904   11.80840511565091
H         5.63150897543799   -1.91470471852227   12.52321655214115
C         7.29364166980262    8.42529191871876   12.63253278165569
H         8.16897220946425    9.03264047666437   12.41306738804673
H         7.21949747491395    8.31660751975295   13.71215402484203
H         6.40628632261477    8.94923476021792   12.28433528688836
C         2.26581835533799    1.38883831013704    8.55211305547977
H         1.99303743202859    0.39944672048834    8.19311321462877
H         1.96498513317415    2.11762833312972    7.80192081683274
H         1.71053555944017    1.59184235910922    9.46425845100546
C         7.96236004825215    0.79866324807381    9.78830829457771
H         7.38242862205546    1.67466581324957    9.50490124695659
C         6.33522262026718    0.65023337779510   13.12184735445297
H         6.89534268828628    1.55038955588540   12.79306119237345
C         6.77615808433623    4.33936575907596    6.57559345677007
H         6.82212742251296    5.07156259967568    5.77329963057503
H         6.38776633315497    3.41083363429337    6.16256694188001
H         7.78611835098153    4.16056585351327    6.93932328157911
C         4.47553450180089    5.15126686972564    7.20792087745296
H         3.82544522415973    5.43130687622590    8.03422622146990
H         4.04195783606406    4.29030293489767    6.70385976882517
H         4.51316499823266    5.98021783000018    6.50397220556273
C         4.54430117080381    1.15424164521700    7.52395139618305
H         5.61056447589507    1.31506605603148    7.66861833935354
H         4.20746006557787    1.78753946267600    6.70543571657661
H         4.38595858952210    0.11668238712740    7.23728606939045
C         9.48095583752559   -1.39986894330346   10.51438557111795
H        10.07553677587592   -2.25591343777356   10.79865673307757
C         9.40218625339478    2.34712639905816   11.14065820499582
H         9.92092403133849    2.25835048469847   12.11599108190793
H        10.11155437780199    2.81712246922037   10.42922871658614
C         8.73457604472990    6.38232942713055   12.32100089016614
H         8.73347112196731    5.34151761682299   11.97638366077902
H         8.90213618281250    6.40108635716859   13.39743592995469
H         9.55244183530118    6.91519271326498   11.83660088780572
C         8.37999549248379   -1.56135409067153    9.69018793361851
H         8.11155828734671   -2.54405868492998    9.33270926991515
C         5.76444887485128    6.81630265683710   15.44476532310548
H         6.71494907228355    6.91992654966778   15.95076601111738
C         7.62361397279359   -0.46078393907853    9.32546698188411
H         6.76488621745676   -0.58776006541406    8.68495089392169
C         4.25800320228510    5.53045490709634   14.09551153961494
H         4.04098164790028    4.61926918853849   13.55113286278064
C         6.50058348530735    4.53851222381481   14.61250004793180
H         7.51204683994656    4.92938268844920   14.83438203728713
H         6.26275795628780    3.78429366458127   15.39059585428655
C         4.82551097312244    7.83069439972858   15.52058195613332
H         5.04799394227298    8.72736406014867   16.08088696056332
C         3.32355451593585    6.54744957653887   14.16335608737217
H         2.37313840708980    6.43583566028556   13.66362718919196
C         7.34647575493005   -0.36319959851963   13.65886462231004
H         6.84936886588159   -1.16890538081441   14.19549011514161
H         8.02559782759107    0.12910475161463   14.35322695157418
H         7.93154880036007   -0.78901550323893   12.84701492744373
C         5.36392822777535    1.06968382104233   14.23409454157576
H         4.72880743818571    1.88849409898463   13.89272339745586
H         5.91204544573620    1.39487448493507   15.11717030321878
H         4.72904944996905    0.22894009985539   14.51239360683157
C         3.60858337690975    7.70190236064593   14.87301493004431
H         2.88147413759338    8.49862285724283   14.92507501606416

