77
CSD_code = BOTHAV | q = 0 | S = 0 | Stoichiometry = C32H39Cl2FeN3 | MND = 5
Fe       27.22979862015559   21.51733014336749    9.67820475021331
Cl       26.80105316200370   20.64653848691984    7.83076190622890
Cl       28.47346243058263   20.06053509769291   10.57948793854685
C        29.18059721490285   22.71308268543553    7.76516350483604
C        28.47638883896650   23.32162435987933   11.26821380194261
C        24.58331915795232   18.72710532694124   10.24510970980959
N        28.71227553778333   22.63278680557799    9.08969367901377
C        30.72702946563027   19.65188713006246    7.92984122197215
H        31.04078279410124   19.42225221757974    6.91401165694097
H        29.65445462758098   19.49445420006647    8.00487179239973
H        31.22136488915693   18.97125101558084    8.61807014397881
N        27.38220311377456   22.52584791131075   11.12601522974165
C        26.53392349298204   22.32954787766994   12.16840282585658
N        25.59838065875983   20.92445785609377   10.61335719341384
C        31.06171555598610   21.10046017586505    8.29081853503621
H        30.76358652723902   21.27261601868442    9.32502494205925
H        32.14017290994700   21.26040356529987    8.20291327340811
C        31.53032588468972   24.17687445642339   10.64298151285210
H        32.14373407675199   25.07964993780260   10.59299295113627
H        32.10082734789327   23.36373868876298   10.19278397572377
C        27.87051457581324   23.76896064827402   13.53405029340106
H        28.06979677978949   24.23665917980736   14.48646994496989
C        30.08601737117207   24.63203854506490   12.71117522367598
H        30.23609775884995   24.73580259042726   13.78753678640413
H        30.07055522139110   25.64095021242532   12.29103300245422
C        25.49150483833107   21.40660861405646   11.81944110274811
C        30.26675235864084   24.42778451692847    9.81103735621475
H        30.53384284807075   24.45393483460097    8.75288304590088
H        29.85409012589874   25.40470295505269   10.07942311772129
C        23.60823967517543   17.97852395368256    9.59887652921508
H        23.59473451320807   16.90758424812199    9.73762846119456
C        29.19252583252661   23.40505285577084   10.02685493107170
C        24.38481642152231   21.07759401962481   12.77061575802594
H        23.96436668160490   21.98641576242598   13.19833484351042
H        24.77905871353244   20.47333490104926   13.58749771857751
H        23.60126800716541   20.51879898743351   12.26415958181077
C        24.60552993874648   20.10976980813999   10.03955342380810
C        28.43695183327115   23.46270700015656    6.84503581705953
C        30.05452322747082   22.93011717993386    5.14282633172156
H        30.40108770209814   23.02201272733712    4.12423974143766
C        26.74427010949174   22.97814557935871   13.38088798658939
H        26.06229307621025   22.82809333741077   14.20204470154038
C        30.33253915321241   22.02953648609112    7.36395482429324
C        27.16995879116721   24.16423518877277    7.25258911479892
H        26.43986647654625   24.06397690908904    6.44731942629146
H        26.75190380562187   23.68052693850383    8.14559537860832
C        25.59583055233496   18.03705628277507   11.11625145359258
H        26.10154142353806   17.27610673160610   10.51692565706873
H        26.35603768814210   18.74463625172661   11.44602955363437
C        23.68599775415686   20.72091898670841    9.17624178291366
C        28.89016135745803   23.56203571121374    5.53924507969578
H        28.31730629344290   24.13796884864769    4.82697746688236
C        28.77696228884081   23.93446305291122   12.48804164141346
C        31.24446893552314   23.82816561282615   12.10453179809506
H        31.00511574562860   22.76617825267228   12.18656901445407
H        32.15167580615888   24.00582934046166   12.68467686390179
C        22.67342462770711   18.57511478102500    8.77583642316127
H        21.92258870960848   17.97542247277111    8.28319021142263
C        30.75907022774329   22.16217931158167    6.04960048135147
H        31.65691134566437   21.64791562289823    5.73893642136483
C        23.73254637912816   22.20202634845423    8.91645995716694
H        23.42349035652308   22.38782418336119    7.88632843103549
H        24.76374052395230   22.56101521972869    9.02794132467144
C        22.71876404697381   19.94107921034391    8.56434535721270
H        22.00644227009536   20.41080657240929    7.90161459052980
C        27.40595857005538   25.64718553933373    7.53869059008646
H        26.46865406931767   26.14006222452027    7.78797916111691
H        27.83309751287948   26.13680778222759    6.66639889242724
H        28.09353940559904   25.77249146821660    8.37180139477273
C        24.95560181566425   17.36402841408117   12.33083095331697
H        24.24565459183014   16.59955789303130   12.02361121930830
H        24.42565168635877   18.08990379931510   12.94354709724760
H        25.72347935245772   16.89424691732191   12.94061366285486
C        22.81757450879191   22.97709228080233    9.86508233338292
H        22.82582184940038   24.03682907424496    9.61875903855640
H        23.14465210782421   22.86129608650883   10.89540461254763
H        21.79593605383133   22.61154378971313    9.78605254666129

