39
CSD_code = BOTHOH | q = -1 | S = 0 | Stoichiometry = C12H17CuN3O6(1-) | MND = 6
Cu        2.32271064667254   -0.59931382602547    8.95542039691864
N         0.88796907567422   -1.34512108362784   10.88448885933482
N         3.87196379068514   -1.72930079738650   11.47606705569164
N         2.31827481811125    0.97660914843464   10.89389630468820
O         1.56771926232858   -2.35334053650291    8.40576489585561
O         4.29835067259430   -0.94237368495181    8.92384089445790
O         1.48175267211578    1.04889526929904    8.26246734876272
O        -0.24242343167941   -3.64036223013879    8.53055977461870
O         5.53175012465298   -2.75755845539575    8.45892096819536
O         1.27227260848531    3.25024430486007    8.49428708215771
C         0.42487479105248   -2.66279277298638    8.84073055459399
C         4.80632445923817   -2.05888056664702    9.13137367029349
C         1.71669853822134    2.15590238449826    8.81317590212513
C        -0.15229967776116   -1.70438502340334    9.93266066554430
C         2.77654964051634   -2.26079485634783   12.25336054566820
C         2.67342860471302    2.10081927864785   10.05595227150248
C         1.46585096515352   -2.52146777192636   11.49538208398140
C         4.61003334638108   -2.62190503064831   10.65569099225628
C         4.18603280566607   -0.44356589550535   11.42756464546348
C         3.33189702901296    0.67138440456414   11.91466293001800
C         0.96539175612229    1.05747734100383   11.40158832727510
C         0.45278960136300   -0.32823403544030   11.82786977440918
H        -1.01255309569939   -2.19085764045752   10.42457563348148
H        -0.48416138639315   -0.79673863415952    9.42587665896914
H         3.10803727431705   -3.22175049425833   12.66369771800433
H         2.59818813848654   -1.58795887674331   13.09416497934614
H         2.62913352733206    3.06361977746151   10.59439790061910
H         3.68184108158430    1.94235040376208    9.66832240392982
H         0.76909162766511   -3.00206676145301   12.21137178384806
H         1.66558335965672   -3.23222557724625   10.69245511578322
H         5.64039565544501   -2.73259070300617   11.00437281200290
H         4.13503266489256   -3.59887389296278   10.60602779265031
H         5.10773291985426   -0.19669571730703   10.92992276756994
H         3.96122299822728    1.55171367610850   12.10494424156662
H         2.82960212448986    0.41703835239218   12.85170028766565
H         0.87257963073368    1.76454542783932   12.24785078983993
H         0.34512163596791    1.42516081864925   10.58434753764036
H        -0.64398291791757   -0.29267401280787   11.89367462724011
H         0.81622266203802   -0.56683171018472   12.83247100603073

