48
CSD_code = BOTKUT | q = 0 | S = 0 | Stoichiometry = C17H26N3ORh | MND = 6
C         5.68442023389227    2.46960607369000   13.64093369706282
H         6.65882513756714    2.72556051795426   13.22997497934151
H         5.72613298069475    1.48706789651182   14.10564289635834
H         5.42738063160383    3.20848647617666   14.39465356780523
C         5.93740746029129    5.07956373437345    8.54070868068670
H         6.79748706642200    4.60054334200571    8.08767683669605
C         4.59240890172475    4.87337350380799    8.18269759497653
H         4.24244471564247    4.21535261464920    7.39724560466629
C         3.87218114887299    6.18667416774861    8.50399984988903
H         2.89700046182498    6.33651653853022    8.04570841353659
C         4.96917794732403    7.21483368291708    8.19235907592187
H         5.24608122798881    7.23998516078811    7.13734272754971
H         4.72454440080101    8.22127630063990    8.53508692688411
C         6.01294325894829    6.51331592629436    9.07349247063827
H         7.00190561571259    6.96185820602292    9.13648977745589
C         5.23590280791287    6.36838370560033   10.38116931067144
H         5.61496055091920    6.66287552876269   11.35005721935241
C         3.92105076148211    6.16666870249794   10.03107016470426
H         3.05364414280841    6.27064734209801   10.66868850241893
C         5.21524189773570    2.26154038813375   10.09690150805071
C         5.03631625771687    1.67352674030301   11.35771735526937
C         4.62138908539129    2.53702970079337   12.52131901845779
C         3.25688126776589    2.06212086797021   13.07118747164452
H         2.91944770805885    2.78870863078020   13.80489427675287
H         3.32242412653698    1.08470941752236   13.54387434668465
H         2.53112970423389    2.03251136147130   12.26108003183924
C         5.26431908870097   -0.70170496085927   12.18839629608664
H         5.48855478372589   -1.63004019804430   11.66598023005743
H         4.28214039389406   -0.77110837440330   12.65522700172934
H         6.01612191053053   -0.52534759366773   12.95800499177420
C         5.78100118111720    1.21892839221288    7.90448368811188
H         6.47040322785616    0.40788652830015    7.65917766686926
H         6.22761641108521    2.18144793723585    7.64802638047308
C         4.45888946989881    1.04339263125450    7.15339751525422
H         3.75725084216175    1.80166374707580    7.50880915649781
H         4.04184626909514    0.06093186748496    7.38508655444308
C         4.64951499138965    1.18166530175211    5.64616422433536
H         5.06980146886549    2.16518957034468    5.42582699897618
H         5.36301452727775    0.43047515002867    5.30029174334364
C         3.33252966225902    1.01386576862911    4.89874664460025
H         2.91375524065013    0.02631684011190    5.07853469939748
H         3.48337667601220    1.13280839039361    3.82872787343007
H         2.61027034137052    1.75693484140608    5.22853972261186
N         5.28326277326733    0.35624657255239   11.21965230588140
N         5.60015220894505    0.06241709613324    9.97711530116440
N         5.55811340346147    1.20580912438159    9.32301081248881
O         4.51164939819587    3.82704593983553   12.05779612533760
Rh        4.90348623037315    4.25163889978996   10.15303176182260

