85
CSD_code = BOTXUG | q = 0 | S = 0 | Stoichiometry = C45H34N2NiO3 | MND = 4
Ni        4.77273992452180   13.06124309525694    4.57449377022959
O         5.16702246680394   14.48420422037806    5.83263918290972
O         6.19203718873830   14.37211256946341    0.50112593232236
N         5.12701401473654   14.27322714072081    3.13253423860604
N         4.53641771745776   12.03618333572701    6.12967847413118
O         2.62196829950263   13.71301950368837    3.48894725480475
C         6.59999154995992   16.03197385252659    6.83476127389685
C         4.35255534483373   14.10238465808289    1.97328062651421
C         4.83772268194032   14.22781058912919    0.66850582784637
C         6.44457998198402   15.87946545550745    4.39215337090076
C         6.22396143819083   15.46588700877431    8.14470826337302
C         7.50070808757277   17.05701181684917    6.69310407627204
H         7.92212450378618   17.51425480126235    7.57847329452956
C         6.80315133389294   14.21494571499629   10.17033081083835
C         5.83264261581202   15.36079255801093    3.22317982558378
H         5.90813288754502   16.00154839879740    2.34132939292908
C         4.50044927554607   14.86902552395422    9.78181732907757
C         6.02717221965853   15.40037626493259    5.67750889398636
C         3.37157804548808   12.08807281299397    6.77138895613660
H         2.48776989221426   12.25386807504488    6.16861936196870
C         4.88270160467306   15.50252678926204    8.55956053696190
C         7.87099734306696   17.53295388287107    5.42890142549974
H         8.57020924270895   18.35165424263653    5.35079759869485
C         2.98967420736384   13.81363190575068    2.17294014885179
C         7.34675797618309   16.95413239354934    4.30414700380390
H         7.63497149026311   17.30631689209526    3.32257075758054
C         5.47169639655919   14.26012746138163   10.56941759236720
H         5.18479324092291   13.80302756867617   11.50731912937657
C         3.87731693058838   16.16118487293112    7.80617280469540
H         4.16326629957681   16.68936402374579    6.90945948631047
C         5.63990255584311   11.81182311371009    6.84494111872537
H         6.57436190462972   11.76428306712940    6.29819072987183
C         7.18711909320665   14.80484077558014    8.92532191160419
C         6.68070342522665   15.23782034397813   -0.43995214451446
C         2.62176309764620   13.87682797060799   -0.18995616502594
H         1.94995179387494   13.80381947559652   -1.03090674994933
C         3.96761070809190   14.09455215145475   -0.40929954317552
H         4.35683904245025   14.16849365427828   -1.41350342254474
C         5.62328170472192   11.64234194315796    8.21730121275504
H         6.54528635544950   11.47564012681291    8.75209848198054
C         4.76298442535424   11.45736430550428    3.47436082872397
H         4.80799865581252   11.63766137483358    2.39702032134715
H         5.65047461476544   10.87201985940006    3.74976933283579
H         3.88009873109130   10.84002133876109    3.67734134216585
C         1.44050375484133   13.11058970360754    3.84843973526820
C         8.53727864660857   14.66487007950464    8.51138599945084
H         8.82985777477120   15.07181162745471    7.55510514479158
C         7.96738648799610   14.98931033393475   -0.90917094698041
H         8.49085001190518   14.11879939141710   -0.54656990542887
C         3.13339789001589   14.87174614159302   10.15959898620735
H         2.85717933628472   14.38193529498952   11.08355157886843
C         3.26420511195410   11.93133744999566    8.14247266824200
H         2.29678974164904   11.99215781834675    8.61557535280972
C         7.79006485721334   13.56880318106936   10.95837893431575
H         7.48768811151293   13.14029569009799   11.90409066528893
C         0.97593394771776   11.93580835534737    3.26771703097817
H         1.53415622016394   11.47450499421889    2.46757292897309
C         2.57359015896719   16.13338755767281    8.19631805987433
H         1.81673905936981   16.63090679719500    7.60664059106826
C         9.45291420472588   14.02440773174407    9.28967621201808
H        10.47656617137415   13.92681241154783    8.95810567300436
C        -0.88446439635394   11.93011546028968    4.79137099595324
H        -1.79220497620088   11.47146572606574    5.15275456726387
C        -0.18685930024570   11.35562718368574    3.74197962201399
H        -0.54630927187986   10.44293551694981    3.29056078812682
C         4.41127123782553   11.70732453958734    8.88510696877379
H         4.36334697148265   11.58346402456787    9.95583626141441
C         9.08012916009937   13.48057774823088   10.53583470620635
H         9.82562112385098   12.98458856754188   11.14100325260263
C         8.54783773269493   15.85352150761085   -1.81644754424996
H         9.54481280173025   15.65408798801076   -2.17984945587546
C         2.12303825896280   13.73769535654539    1.09546092638335
H         1.06822508800296   13.57575524898875    1.25414091118184
C         5.99164380470360   16.36603036240136   -0.87145737814806
H         5.00190103142169   16.57339471333720   -0.49010316647797
C         2.19288766637083   15.47117684225246    9.38140930020659
H         1.15140819269509   15.46097168423558    9.67071774200297
C         0.74974675596921   13.68209360384174    4.91342004696304
H         1.14812414866822   14.57620010608755    5.36813721409399
C         6.58328120296761   17.22178899915668   -1.78311352115152
H         6.04255611066737   18.09527878240349   -2.11568770221381
C        -0.40826306436478   13.08970551313449    5.38094110504699
H        -0.94146943349512   13.53689270258475    6.20644650173694
C         7.85665683858470   16.96864056410049   -2.26215564693644
H         8.31018051903081   17.63884576876832   -2.97628909960687

