44
CSD_code = BOTYEQ | q = 0 | S = 0 | Stoichiometry = C21H16Cl2HgN4 | MND = 5
Hg       -0.71237750668794    7.94127253749176    4.77617998018162
Cl        1.20635054680435    9.02969649270917    4.12523638874779
Cl       -2.40682192399500    6.69237400056774    3.90840033719693
N         0.39350118639431    6.20911235009038    6.20523655904340
N        -0.20323981088397    8.70051751719680    7.05749149960085
N        -2.01564312685459    9.95752588105673    5.49258349663964
N         5.51416370061413   13.19602402994139   11.30527619264288
H         6.47733724894057   13.11198061576938   11.02790861627062
H         5.24104315832463   14.09004745458662   11.67638016674747
C         0.47086479513622    4.92392382139701    5.90079169576932
H        -0.03504580462586    4.62177570706909    4.99270665669226
C         1.14816862843422    4.00399902537374    6.68700246871604
H         1.19014548093761    2.96593193892752    6.39858780269545
C         1.75921678390702    4.45345843643570    7.84623348416315
H         2.28906072662014    3.76876486775002    8.49218664511394
C         1.67567260183620    5.79711577892931    8.16884138376717
H         2.12105269581633    6.16937082076664    9.07796409022429
C         0.98630997394126    6.65642541992022    7.31562104983621
C         0.86287806892863    8.10272709419231    7.58515423674043
C         1.81332756545303    8.80524172362050    8.31460481466772
H         2.67766144365027    8.30171596253627    8.71662325725096
C         1.66198023118469   10.18075382170554    8.49781759780349
C         0.52945932534943   10.78211692817028    7.94643870019497
H         0.39851356040790   11.84982672656598    8.01965682631713
C        -0.37521236895315   10.00924414380203    7.23024861264351
C        -1.56356387025365   10.59258231702192    6.57707594092173
C        -2.18963834522015   11.73817925162841    7.06370146522878
H        -1.82984906102898   12.21860074580728    7.95982801395262
C        -3.29478086804048   12.23601205432024    6.39530411469813
H        -3.79643201687101   13.12302700935022    6.75347874863861
C        -3.74681247888665   11.57498527780906    5.26502520708448
H        -4.60232548993120   11.93038659819008    4.71337183892917
C        -3.07388728349605   10.43324394660550    4.85659814263124
H        -3.39568004724850    9.87243747221701    3.98848817496003
C         2.65962536672881   10.96585928488832    9.22224941774147
C         2.28195708757608   12.04323547297443   10.02578181107558
H         1.23509631066619   12.28184932742762   10.14277474778127
C         3.22074068570913   12.78754290410780   10.70336363411366
H         2.91078460338794   13.61100914053347   11.33057365086085
C         4.58226437766568   12.49095491451646   10.59037225397201
C         4.96374604076549   11.41629470664734    9.78138128337876
H         6.01314058559102   11.18161776014552    9.67671360191657
C         4.01929925872099   10.66592107986786    9.11896642765729
H         4.34024796347991    9.85971763935769    8.47667896477943

