35
CSD_code = BOVBIA | q = 0 | S = 0 | Stoichiometry = C15H13N2O3ReS | MND = 6
Re        6.54443893813124    9.17738131980525    0.47815339781329
S         6.44348214504993   11.16545749826043    2.08844655139229
N         6.22275235467521   10.68172285645833   -0.96690822922867
N         8.45151911422569   10.06931600238881    0.26185605703278
C         6.87952818129018    7.73377226663908   -0.79314468824706
O         7.08827897398186    6.88949737517391   -1.54404669904542
C         6.98743877086989    8.20151789579394    2.11171707033611
O         7.25392737532176    7.77631809153617    3.14049493514103
C         4.67602811812554    8.67367774874212    0.69203133068068
O         3.56272572577302    8.42359830780618    0.83130418890420
C         4.80399278870332   11.28312643639141    2.85997254386146
H         4.52943591627335   10.29176094670782    3.22190830691148
H         4.93644882882578   11.95067451625732    3.71435585786228
C         3.76243304511256   11.83326196561637    1.90336906122445
H         4.05936913473821   12.81910775949961    1.54708280256932
H         2.79909236161112   11.91642167110122    2.40422488107444
H         3.65054126135230   11.17482298005910    1.04255287531253
C         5.08504171295783   10.90426706471852   -1.62433859696182
H         4.33356023769581   10.12727215598493   -1.55759658687760
C         4.84200538973561   12.04815179228123   -2.35876992930278
H         3.89538064029525   12.17812314293522   -2.85748099082192
C         5.83556275112936   13.01550133571410   -2.43178068301683
H         5.68283980281391   13.92645542004261   -2.98964951827939
C         7.02898936518613   12.78439978638511   -1.77852385033198
H         7.81938194956338   13.51465939524211   -1.82960477091722
C         7.20142630900805   11.60983368836634   -1.04464165078109
C         8.43938018376323   11.27706178720328   -0.33925481458249
C         9.55151656275936   12.11967687121327   -0.29348322755417
H         9.51861977474843   13.09262923446680   -0.75501760187388
C        10.69184998449033   11.70871339228114    0.36475818988087
H        11.55533017181952   12.35362627349486    0.41972981788728
C        10.70396559891886   10.44991680007874    0.95133679003271
H        11.57531473857218   10.08067490514704    1.46710607019358
C         9.56330008141427    9.67526379389144    0.87750622158302
H         9.53670171124993    8.69293752231250    1.33193488806471

