52
CSD_code = BOVBAS | q = 0 | S = 0 | Stoichiometry = C22H21BrCuF5N2 | MND = 2
Cu        3.88339771773443    5.67327067776602    2.57511166154129
Br        4.77202252437115    4.49941872472603    0.89277342777525
F         0.89784278440646    2.94930615519501    2.16355965856138
F         1.48765099429350    2.45234957980971   -0.43420373513521
F         1.90072313299917    4.53166062088983   -2.16053218002637
F         1.66186043531005    7.09925234852842   -1.26017271907316
F         1.01184890475304    7.57709415574837    1.31526680018555
N         1.40132420722122    6.60507581152131    3.83136439331219
N         3.03918494641289    7.88806388943263    4.34656403185722
C         2.74200986054405    6.74212571219572    3.70541017450379
C         0.87733646728662    7.64805914389714    4.54622241120509
H        -0.16788972906755    7.73332340665508    4.75858497069198
C         1.91193478156172    8.45784582650359    4.87227150417102
H         1.94076722209454    9.37679212650225    5.41976012238123
C         0.63527956437036    5.52506824209613    3.25988188183240
H        -0.42640949955747    5.78322273398147    3.33711450427714
H         0.80774900510160    4.60351037721297    3.82736244874417
C         0.98710027169507    5.27052191546193    1.81156516510761
C         1.10491321732701    3.97118606045231    1.32574491418712
C         1.41835183457706    3.70554075953380   -0.00341332000156
C         1.62568304626488    4.76418591433823   -0.88483306769406
C         1.49652127203398    6.07308830798210   -0.42596573966759
C         1.16685425716776    6.30973877228808    0.90240242415253
C         4.34830510892513    8.44691619216299    4.40259191953171
C         4.76545036633723    9.28164535302770    3.36383999510705
C         6.05884634111644    9.78500962379323    3.41911356205260
H         6.41706352106802   10.42099100616442    2.62548409092003
C         6.89737185771673    9.47015119149450    4.47044475218441
H         7.90209099612145    9.86449035212896    4.49240481843073
C         6.46201656068410    8.64465357361327    5.49012826852931
H         7.13302864219766    8.40010345348727    6.29750975253392
C         5.17750310185980    8.11948122255206    5.47742366945014
C         3.86680028384244    9.60343268716863    2.19303084846923
H         2.85713985236271    9.23341913399523    2.39564474030715
C         4.38132525667133    8.89647303271017    0.93640960637605
H         5.36861758309277    9.25907599152679    0.66283648838365
H         3.70384934757940    9.06970210793930    0.10393501050880
H         4.45060320624785    7.82243571581047    1.10516545953634
C         3.76257456950004   11.11229276664828    1.96366647764261
H         3.44716048052075   11.61784991158411    2.87435874699449
H         3.03077563562557   11.31353914723343    1.18520388057148
H         4.71456206843682   11.53067897069823    1.64930414626039
C         4.70880935106132    7.16775291055075    6.55349070482401
H         3.61355973840710    7.13605403388811    6.54792187494226
C         5.14753537265525    7.59986336974660    7.95270799791725
H         6.21999012382749    7.48667039643379    8.08381128435158
H         4.65320378208513    6.98199336504945    8.69899193196220
H         4.88258204487096    8.63937140480436    8.13422103102968
C         5.22848743377756    5.76279683750454    6.23242830191018
H         4.87507141742138    5.43961294021452    5.25341588924338
H         4.88289423531272    5.05098744141309    6.97848870203857
H         6.31572450178252    5.75475460393767    6.22068631509939

