115
CSD_code = BOVCUN | q = 0 | S = 0 | Stoichiometry = C43H42AuClF26N2 | MND = 2
Au        3.15865177435380    9.43715046395996    1.51317776922231
C         1.71153983678750    9.43806572496913    0.15334524096911
C         0.15124657548087    8.76104650517676   -1.29069086814549
H        -0.43971261214233    8.05636340124555   -1.83771327965683
C         1.46583763078640    7.02896881007459   -0.08321593398336
C         0.82280823599822    6.39196228599690    0.97851977742592
C         1.19972243313330    5.09172883791644    1.28239445432265
H         0.72333322887552    4.57888172905796    2.10338413336178
C         2.18107739708378    4.43774298532423    0.55653154759639
C         2.80794389544274    5.09971970594879   -0.48725268824658
H         3.57958693357186    4.59075338100500   -1.04371345548843
C         2.46802562358288    6.40082325570692   -0.82467894273959
C        -0.22880512083833    7.09409332378714    1.80357808130393
H        -0.42912714216292    8.07798288661728    1.36768200650153
C        -1.54381184392876    6.31155455973660    1.80782581973273
H        -1.88607559086056    6.13182265840095    0.79060367143558
H        -2.30903968603802    6.87664056730764    2.33466629661601
H        -1.42789545603218    5.35286369144486    2.30516433498075
C         0.28831660325815    7.31153136479193    3.22757195882730
H        -0.43936957475978    7.87429535382616    3.80731924553732
H         1.22373818609027    7.86855363445227    3.20951938548578
H         0.46443400189440    6.36176955423205    3.72508888406606
C         3.19699741616007    7.11666925234099   -1.93649369321871
H         2.73406676084836    8.09525941486875   -2.09794222186957
C         3.11050582568652    6.34023015391231   -3.25202596772385
H         3.63110200507945    5.38948744627844   -3.18202292442023
H         3.56645179746183    6.91775384113151   -4.05269660520994
H         2.07261620508216    6.14543074669256   -3.51457115904131
C         4.65372150771320    7.35124211023452   -1.52918935524495
H         4.70032246438363    7.90309575878842   -0.59172150951810
H         5.16874301132243    7.92505766395065   -2.29584337086362
H         5.17531807597399    6.40719808725694   -1.39717113790009
C         2.59613952789665    3.03926770846832    0.91902180379566
H         2.81201897720015    2.46683856429235    0.01516759273290
H         1.79470437552575    2.53723741554651    1.46336801691482
C         3.85214563518603    3.07598444636483    1.80288547801018
H         4.68187550193600    3.54080751331391    1.26770321175385
H         3.64829600615970    3.65330390387379    2.70583183287045
C         4.25516852778939    1.66430175684832    2.20006177137008
C         5.62783975333416    1.56918361777641    2.93614018079269
C         5.71537750456473    2.44734001453035    4.22201125933966
C         6.84579377148203    1.97834618137440    5.19180093455960
C         7.23424152808722    3.07903425229062    6.22882524280036
C         7.99316246463237    2.48349505479703    7.45751651769587
Cl        4.78423638255874    9.44012262724271    3.05710835070269
F         3.31528457454975    1.08412805407063    2.98416719280335
F         4.35781759699264    0.86427732152816    1.10985098378257
F         5.89260837911962    0.28700856811962    3.24196834869087
F         6.59819456893764    1.98085718360168    2.09460386664920
F         4.54950006629509    2.43418659530803    4.89031842191492
F         5.93353408131259    3.72093912297578    3.84926995051626
F         6.43060555853957    0.87595276215370    5.83753062304574
F         7.94508666435946    1.64591547553511    4.49903611995779
F         6.14026821155578    3.71641131100414    6.67453241963722
F         8.01990358565052    3.98590636215460    5.63061335946060
F         8.55821612558436    3.45392995042712    8.16086133983248
F         7.15514804755766    1.82990245033887    8.25300385709282
F         8.94581846768791    1.64177092828412    7.07333287144575
N         1.11488792710588    8.36883546860986   -0.39854593247079
C         0.15115102306980   10.11547500999675   -1.29043406058830
H        -0.43977353114032   10.82030099424008   -1.83736088424995
C         1.46617849644279   11.84727400517360   -0.08306182581173
C         0.82302077352713   12.48412004651851    0.97871266631682
C         1.19974410627961   13.78438387867384    1.28266214919983
H         0.72328830294787   14.29710034073439    2.10369978151746
C         2.18111550258135   14.43852139665116    0.55695449975705
C         2.80828193969634   13.77661867835892   -0.48668164755381
H         3.57993241545218   14.28570360217126   -1.04303141116310
C         2.46845422581028   12.47553816200635   -0.82428435836404
C        -0.22860053611123   11.78188907964904    1.80368320776093
H        -0.42905777528296   10.79814603269268    1.36752057246022
C        -1.54354449765561   12.56458243182833    1.80832420118521
H        -1.88590635121709   12.74498154409407    0.79123906127699
H        -2.30878834276944   11.99924542462881    2.33484823558307
H        -1.42759372223495   13.52295640843816    2.30627721786142
C         0.28863415447426   11.56397164789210    3.22758044555677
H        -0.43917317967632   11.00135289616605    3.80731553538255
H         1.22386672522759   11.00665454688133    3.20932254153663
H         0.46513690629534   12.51359340449867    3.72520815523736
C         3.19762527636903   11.75977296044600   -1.93601727204345
H         2.73463842940678   10.78125954510002   -2.09777735063021
C         3.11171048724460   12.53637990067482   -3.25145798543805
H         3.63264952920077   13.48690753771973   -3.18118162022267
H         3.56754228026992   11.95879331944705   -4.05216409190639
H         2.07392527954515   12.73159741055786   -3.51402392470602
C         4.65419931508446   11.52503052451974   -1.52832862512131
H         4.70051401419301   10.97286684504673   -0.59103355905399
H         5.16941228074164   10.95140317612055   -2.29498485827847
H         5.17584727559324   12.46898183598198   -1.39579824064379
C         2.59588845911202   15.83709186394380    0.91940341315730
H         2.81156712687755   16.40953333271929    0.01550577068926
H         1.79438248516556   16.33896896847541    1.46378770832491
C         3.85198820850219   15.80069281700802    1.80313491174610
H         4.68176954790831   15.33604046264668    1.26788380459970
H         3.64835198213581   15.22335428582574    2.70611750218185
C         4.25474419945034   17.21247670267156    2.20021645522795
C         5.62750785048925   17.30788393188737    2.93608179516318
C         5.71544364136781   16.42956391307913    4.22180720079307
C         6.84602492884405   16.89852356560119    5.19141296819727
C         7.23479202678536   15.79767878876438    6.22815197939630
C         7.99397300978681   16.39303675464902    7.45676557546379
F         3.31485488504897   17.79244441314282    2.98446470146832
F         4.35704496762759   18.01251756452567    1.10998642391373
F         5.89200213271000   18.59007986206279    3.24205362521871
F         6.59783226107607   16.89656937344753    2.09433540158580
F         4.54971126657373   16.44250409223189    4.89037153852219
F         5.93366665793205   15.15604123379780    3.84884097387464
F         6.43088163507550   18.00076563268026    5.83742709064450
F         7.94513111789145   17.23117896590421    4.49846039322968
F         6.14096128099010   15.16016116451295    6.67400554892848
F         8.02036455689021   14.89096115168936    5.62958860268983
F         8.55923924611860   15.42250120836149    8.15980125221565
F         7.15611523450054   17.04644702204331    8.25256743831217
F         8.94649612843321   17.23487640858193    7.07250589631639
N         1.11519014860796   10.50748016564112   -0.39861963654288

