73
CSD_code = BOVCOG | q = 0 | S = 0 | Stoichiometry = C38H27IrN2O2S3 | MND = 6
Ir        1.65398608484620    9.34123813130346    2.25367834397174
S         4.67392467882043    7.86532173940980   -0.63213968821597
S        -0.33870042974457    6.07462905749057    5.86569546166932
S         0.62426943939011   13.65029791856975    2.28921837291189
O         0.50396008962345    9.43731366236870    4.11758176549546
O         1.40165397373220    7.14974935314762    2.48751163652942
N         3.50385063705716    8.84957562824518    3.05020312219557
N        -0.19563383945901    9.83622170030186    1.46139213653135
C         5.73457470643290    7.33228036657436    3.86738653703816
C         5.23122049554523    8.02801683721560    6.20274182264261
H         6.04393265950634    7.41898836509123    6.56667121018275
C         3.86463794928527    8.83700156757127    4.35806370368128
C         4.27995862529833    8.21600871425023    2.15887989244035
C        -0.80523029244819    7.68894587268585    0.60532371603909
H         0.23459657199494    7.40795368720060    0.63699046506748
C        -1.15631913795043    8.99279916623386    1.00720613629106
C        -2.51549762686085    9.40136370003186    0.89354120204639
C         3.84875808952005    8.37481189009763    0.81107539074492
C         3.16761349135330    9.64091625352681    5.28166374066512
H         2.39309270151110   10.29117471265414    4.90943819002454
C        -1.75787848213659    6.80360327397747    0.18013903481508
H        -1.47196285203616    5.80698675552091   -0.12177406165785
C        -0.52639711841615    8.66823357114973    6.11307973010302
C         2.80348111869984   12.30269397394398    2.58204126338448
H         3.83810369487159   12.07592422328672    2.77220440004961
C        -1.83615000900248   11.59521908333687    1.55753707139778
H        -2.02086817084093   12.63701204571857    1.77348082672105
C         0.90821426907206    6.50929621980042    3.44059936550754
C         0.31310089583548    7.09116616900614    4.56934625467092
C         2.30537500138219   13.56932343345330    2.63284082615869
H         2.83105575924491   14.47891633092903    2.85228064510520
C        -1.78927675336542    8.69772319669617    8.57140462665146
H        -2.28373388478501    8.72209771780878    9.53145066843278
C        -2.85074942610315   10.75227035517525    1.20270383633408
C        -3.10346629792294    7.18391504169338    0.12528006187846
H        -3.84892344268725    6.47343956688040   -0.19974148871733
C         0.59146517225675   11.92623540034904    2.06997212826734
C        -0.85177095300495    9.88638321931793    6.70067236996439
H        -0.60434620903362   10.79998422634826    6.18051435715303
C         3.41990132442888    8.55198044905396   -1.58403910062812
H         3.48970785390724    8.48654741121644   -2.65304719326643
C        -1.47292211235786    7.47994852058697    8.00306943837051
H        -1.70981944143598    6.55135473608484    8.49922745379573
C         4.95597046823386    8.04967172697921    4.82259869678782
C        -3.46891576687413    8.45954253405347    0.46327453303780
H        -4.50405108970833    8.75500041779376    0.39274449773856
C         4.49281808729745    8.77105137165461    7.08484404217366
H         4.71255348276957    8.73586057973576    8.14146342293428
C         3.46711351906281    9.59956831259718    6.61604010425557
H         2.91484431140280   10.21317527305861    7.31216563256588
C        -1.48121362838230    9.89497713703436    7.92723580167800
H        -1.73986636764689   10.83299143719155    8.39560013068831
C         1.82807353074906   11.33328228792636    2.25247273767321
C        -4.26165599009004   11.23915345804881    1.12270078799592
H        -4.65761520620343   11.10362781600556    0.11716998458880
H        -4.31194206014906   12.29473840595538    1.37635614826846
H        -4.89516992085436   10.68472079658533    1.81396508410535
C         6.88550674060752    6.47760488050666    4.29080713304180
H         7.63332608916704    7.07417715934798    4.81175537518521
H         7.35187922824262    6.01562379859693    3.42461820648068
H         6.54921129532905    5.69178949768129    4.96594287833808
C        -0.51751933637951   11.11781140365705    1.69058121478053
C         2.66585870104355    9.04463711206516    0.55249976267351
C        -0.83786124502436    7.47210107892035    6.76923308953109
C         0.94613301523880    5.00002194846113    3.36813093617671
H        -0.06921223200911    4.60705285096445    3.36139517567390
H         1.45738816466858    4.59605767432594    4.23998099085089
H         1.46325480825528    4.69193956164809    2.46265656964930
C         5.40762807952307    7.46620024849463    2.54774543488178
H         5.97917444482168    6.97458174341696    1.77462994643647
C         2.43664208292064    9.13081850687041   -0.84027433541801
H         1.57720164322471    9.60587365089001   -1.28057615528738
C         0.14415634675129    8.46938408423796    4.83487650006717

