55
CSD_code = BOVCUM | q = 0 | S = 0 | Stoichiometry = C28H19IrN2O2S3 | MND = 6
Ir       -0.26461128411982    9.31757949629260   10.00299890667107
S         3.50452448357680   10.13125775870620    7.77143130959309
S        -3.76063153084232   12.81623756797275   11.70064173988526
O        -1.72817729721715    9.42894183760768   11.62991171275474
S        -0.54693270367314    4.88280707624656   10.32590683354599
C         1.15170498121958    9.33474743691212    8.57874950835824
O        -0.89852318437536   11.34407152171052    9.52118065641169
N        -1.74593541950554    8.43115081750419    8.93368567556877
C        -2.65288436975486    9.05909830356331    8.19312627323918
H        -2.51544814416807   10.12410974765019    8.06475470185191
N         1.23601984864942   10.17304803863137   11.05976105407746
C        -1.85874841482954    7.08876212620705    9.10772394881699
C         0.15848440127820    7.39662843150522   10.41654334586665
C         2.28501826078174   10.00534977036700    9.00316439902917
C         1.11576911784529    6.66764015300522   11.15809353956990
H         1.96426784323374    7.11177135718111   11.64932603213714
C        -1.79932513100124   11.99643843545654   10.11072502429785
C        -2.52493201337124   10.35706153284661   11.89452083685075
C         2.35020990574798   10.48002282524588   10.34540274926555
C        -2.91043884453345    6.36865355016422    8.53581161994378
H        -2.96530086649239    5.30426572169362    8.70291987846028
C        -3.21019929547990   13.89345093123468   10.45361498090073
C         0.86515708293286    5.32912075957193   11.19366245930213
H         1.43304211376432    4.56212388078538   11.68466662028690
C        -3.48289651182930   10.15121153874623   13.04543114238143
H        -4.50938046598659   10.22836853599853   12.69164244724554
H        -3.33092047418647   10.92061928059435   13.80066763104409
H        -3.31977608512043    9.16923135267019   13.48264366680603
C         1.28997503477739    8.92726853805791    7.23244455625329
H         0.53732476913741    8.38655635350305    6.68517916924211
C        -2.58871806086905   11.57962888832038   11.20927979215444
C         2.48376178885271    9.28427614892963    6.68171341284600
H         2.83541439936354    9.09673547651465    5.68525572087634
C        -3.85057403733546    7.03479309283405    7.77975778586347
H        -4.67483888848024    6.50080055522917    7.33184910933095
C        -1.61479449160044   14.07398311537469    8.64907533446096
H        -0.81484204194234   13.63418630102203    8.07205459327988
C        -0.80798932179604    6.54932804432010    9.90540279142005
C        -3.71830063505275    8.40840328910169    7.60049817940398
H        -4.42935799147098    8.96463142011095    7.01144938582956
C        -2.09660551928660   15.33760331488917    8.38078157792688
H        -1.67273175382221   15.91671088120171    7.57411654569270
C        -2.17343084214121   13.34170093129794    9.69212032933224
C         1.17316788146454   10.53731348298769   12.33590089873787
H         0.27627105288171   10.25749587577637   12.87177781511524
C         3.41361877802527   11.17718343602959   10.92341037537355
H         4.27810414216018   11.40515905547077   10.31949500190730
C        -3.13123680257049   15.87656608013016    9.14386202286200
H        -3.49760368151809   16.86744474698976    8.91915504225968
C        -3.69603439651408   15.16477618740002   10.18331698554850
H        -4.49657579694629   15.57901341464360   10.77671879773438
C         2.18856109944872   11.22822707851920   12.96929100688988
H         2.08814351681253   11.50277472317549   14.00698490911609
C         3.33034554998533   11.55821348328664   12.24530913402045
H         4.13771024589534   12.10115629881439   12.71289103236208

