62
CSD_code = BOVCAT | q = 0 | S = 0 | Stoichiometry = C26H26MoN2O6S | MND = 8
Mo        5.82099608755398    2.99392648037229   11.93522044929182
S         8.75351630505500    5.24610858430748   11.57063943989590
O         8.00138156219352    3.41807271356750   14.07574274922610
O         7.18426655447943    0.22408559733947   11.89414352168984
O         6.76983621954992    1.64556233970031    8.80625422053295
O         6.01151170755128    3.69918710326508    8.25314936188182
O         8.68722934341437    3.80225103108676    7.93679825925996
O         9.68152457100462    5.56282294071036    8.90584539163141
N         4.37805502900696    2.70639255126539   10.44637791833572
N         5.13636581266837    4.94659319230170   11.57927680240333
C         7.24816888212794    3.35649443769205   13.21043882404362
C         6.66081272860068    1.24227470628189   11.88481742621028
C         4.97560905260876    3.47977525412439   14.04668605787419
H         5.51117232745903    2.98080147707668   14.84947755587979
H         4.69882611049230    4.50151013260935   14.29818120901571
C         4.03835097953620    2.71401809018163   13.32239931075767
C         4.47427166710012    1.40947476279608   13.01572065579069
H         3.79073584062707    0.76801426123210   12.46520841320346
H         5.04101715950620    0.87620875010689   13.77440054145361
C         2.67163853081845    3.22870909134781   12.96360388985267
H         2.24393117225135    2.69641932194067   12.11327553814684
H         2.00912453284966    3.06972784297637   13.81850429901036
H         2.67836579675135    4.29889219957804   12.74912096244475
C        10.45181647179866    4.56622885553506   11.70548873534190
H        11.01369891780121    4.93136402427818   10.84686740370469
H        10.84706527730293    5.01860113367973   12.61388122512012
C        10.46910936549208    3.05419606346438   11.78690192152417
H        11.49837828337834    2.70284603431783   11.83644232005980
H         9.94058980978693    2.71084374634101   12.67217123341832
H         9.99239138112507    2.61197624538405   10.91285665220735
C         7.10281476046846    3.47972171103506   10.30352368550733
C         8.14611416445328    4.32223914191663   10.18307970794348
C         8.84400148402190    4.51325210318411    8.90545984569457
C        10.37808681531872    5.79478766711126    7.69493505872106
H        11.03165400068581    6.64427217323025    7.87818183304374
H        10.95969631695622    4.91308231566251    7.41518326634769
H         9.67549561430768    6.01886237833997    6.88907461509803
C         6.68054740214837    2.82283270392956    9.05138597193699
C         5.67395441159291    3.21507433436314    6.96392968507813
H         4.90292943766904    3.87684749317530    6.57324487446509
H         6.56303599914490    3.24040000069941    6.33064468076763
H         5.31021192201831    2.18696162994970    7.02726889410023
C         4.04709882918040    1.57082586866189    9.84976571515115
H         4.58327881254106    0.68704502035179   10.16752546582416
C         3.08725970302742    1.48550801703346    8.84608216193033
H         2.86099217544144    0.52437533680692    8.41173089958505
C         2.45049769696819    2.62846967862312    8.40603238789687
H         1.70917331706603    2.59277400900377    7.62177032148712
C         2.80867773628413    3.85415907440816    8.98004782642686
C         3.77855969611331    3.83460678497202   10.00715592203628
C         2.27544702828962    5.10926874439976    8.56596665050706
H         1.52881176556564    5.10941899557370    7.78512642683116
C         2.70713503182355    6.27065180492502    9.11337386878199
H         2.31474287084109    7.21960433634583    8.77818844425528
C         3.69772742853866    6.28153925214088   10.13819840099018
C         4.20971524989189    5.04828978829417   10.60076042710131
C         4.20684145964440    7.45039992181852   10.71712397612232
H         3.84660090627564    8.41535559030098   10.39316067744336
C         5.17586096696347    7.33403135030812   11.69229637633414
H         5.60468577855670    8.20887480106024   12.15413719950538
C         5.60526302794084    6.07270614331577   12.09473549294257
H         6.36153071031541    5.97068286407898   12.86051695094903

