55
CSD_code = BOVDUN | q = 1 | S = 0 | Stoichiometry = C14H34O3P3W(1+) | MND = 6
W         0.14819673269160    0.63715501697654    2.37954774707065
P         0.22772419492958    1.37844830925731    0.03964390523935
P        -1.96182244942099   -0.58261810307779    2.30379062437518
P         0.75599995197849    0.42464956309546    4.75568242420696
O        -0.70628707328194    2.04834878049819    2.72934620643506
O         2.05618510562415    1.01186764707282    2.26884688762183
C         3.08743422513084    0.31266371279824    1.95601542796504
C         2.99441555534639   -1.05808956399582    1.64691405492434
H         3.90568635980308   -1.57561901293939    1.39417581795316
C         1.80763711835516   -1.76957724837472    1.65532817860945
O         0.65551315397317   -1.22331077548893    1.95084112997448
C         4.43269716230473    0.99890932775381    1.92997343477490
H         4.87686821577860    0.93481160886842    0.93756990909638
H         5.12083387409266    0.52684760145428    2.62949905919447
H         4.31792823554410    2.04661338283561    2.20034743848553
C         1.78300289195339   -3.23425229206695    1.29901446939678
H         1.09826281437021   -3.76456420551930    1.95952524768204
H         2.77231358411263   -3.67319012788014    1.37583871090268
H         1.42563712749202   -3.36345919783445    0.27640268856656
C         1.21928677786418    2.91984760619414    0.04931853851893
H         2.26171791253009    2.69260035685737    0.27151541935012
H         0.82382532133661    3.55952281890520    0.84162833382011
H         1.15869849100564    3.43539494561126   -0.90916152120403
C         0.99391056457619    0.43169153641442   -1.33282980204096
H         0.39772443315619   -0.45330434570884   -1.54965444032345
H         1.99456573654732    0.11252335845524   -1.04175622131395
H         1.05846203363771    1.04960332009416   -2.22728610568411
C        -1.32452403026816    2.00367640946954   -0.70512519096043
H        -1.11364253718127    2.57029356641083   -1.61147941478150
H        -1.80372206880225    2.65216337341008    0.02879187487117
H        -1.99835034472828    1.18421045985630   -0.94726234137274
C        -2.25609808346455   -1.63706993850108    0.82844516221790
H        -3.23154252175559   -2.11729370914921    0.89263153186419
H        -1.47986517531359   -2.39886548125390    0.78051125091521
H        -2.21025150198512   -1.03216685247479   -0.07595637458466
C        -3.47358408977304    0.44352479993005    2.35882628660125
H        -3.52823379737772    1.05379074850695    1.45924699304249
H        -3.40367109554634    1.11262662808146    3.21573633054867
H        -4.36694564948600   -0.17444592986944    2.43950166889877
C        -2.30338739716164   -1.80304186029774    3.63641452555115
H        -3.18371782604671   -2.39767417846109    3.39537241760987
H        -2.47442682755559   -1.27310666730658    4.57186187373058
H        -1.44238137378950   -2.46143395550587    3.74897752546584
C        -0.40058778735192    0.17533205978846    6.15950920940525
H         0.08620907735268    0.44415683727214    7.09626290351800
H        -0.71542829819259   -0.86504535785968    6.21146861630188
H        -1.27508122782374    0.80861310656091    6.01474997415219
C         1.40860683651504    2.09084044645559    5.14512468336362
H         1.71137166477598    2.17090985009117    6.18913184845327
H         0.62079684467642    2.81542705680744    4.92832968759942
H         2.25919550923537    2.30563348013158    4.49701924691428
C         2.15253423097770   -0.66581303086514    5.22729001803036
H         2.99883988518543   -0.49339021686404    4.56275845921756
H         1.85114598108622   -1.70932358707294    5.14123259211471
H         2.45362355257629   -0.46454207716679    6.25485107763579

