47
CSD_code = BOVGUP | q = 0 | S = 0 | Stoichiometry = C24H16Br2CdN4 | MND = 6
Cd        5.38444777393385    3.11937881625876    3.12826507233129
Br        7.17650992585661    4.77141819937142    2.42983087091692
Br        6.07502096588443    0.72723228342769    3.60726045625904
N         3.07016520612465    2.22459458134978    2.82488458648951
N         4.85055376118610    2.51802863309579    0.78498842276793
N         5.64401994526406    3.79924851496160    5.49664287448962
N         4.01566247039646    5.11445805292955    3.75442820871465
C         2.24109676468099    2.07040518031917    3.83016943006499
H         2.31016894556802    2.80978483553399    4.61890825761017
C         1.31509412041385    1.02545002093600    3.90779130916150
H         0.66322748413705    0.94446552888801    4.76345765729986
C         1.26486780827455    0.11171143482522    2.88387344279109
H         0.56919621446698   -0.71503676878125    2.90437888368365
C         2.14123381330040    0.24999401481605    1.79533074994411
C         2.15772124573186   -0.66130735495317    0.70185660413487
H         1.45783017786765   -1.48403835731367    0.71463630789340
C         3.03361823679641   -0.50771821662100   -0.31856244566328
H         3.05190297311704   -1.20382192383790   -1.14442358120735
C         3.96741324654870    0.56705092459985   -0.32790710437753
C         4.90870416104597    0.74414226658771   -1.35597596498793
H         4.93283837096265    0.04504311149928   -2.17982676013070
C         5.78625696631185    1.79743792164639   -1.28859805909321
H         6.52637241067699    1.96200291986750   -2.05551993061435
C         5.71998587161946    2.66138373070565   -0.18958887544020
H         6.40557861387730    3.49625663387970   -0.10299010726100
C         3.97919310313909    1.49687466466628    0.73597045407423
C         3.04328149075602    1.33839631732704    1.81768174693522
C         6.43437465381786    3.15764706869465    6.32726936360702
H         6.52920380786434    2.08927138545537    6.17189646794187
C         7.13309079947371    3.79099102444364    7.36134292079322
H         7.77210806872335    3.21215020967190    8.00912586227952
C         6.99729266789417    5.14793330314167    7.51741839204008
H         7.52831615753991    5.67969539752032    8.29414271065246
C         6.15852292140815    5.85970339478833    6.64326093838558
C         5.97714789437043    7.26920085235579    6.73064834943579
H         6.50298742854566    7.80178277084051    7.50961506634552
C         5.18042271896784    7.92514093239363    5.85484669829911
H         5.05325728772123    8.99624715351597    5.91362344786513
C         4.49545004884070    7.22430807967496    4.82232652806750
C         3.67821341622800    7.87073588231960    3.88088291948214
H         3.55575380458567    8.94330509703180    3.93092994770792
C         3.05730326498294    7.12795079096720    2.90692709810866
H         2.43013097113830    7.59265024891983    2.16238783416298
C         3.25887949015238    5.74431900328766    2.88710224329565
H         2.78598332570714    5.12580362204771    2.13387292561400
C         4.63821190254760    5.82229027743942    4.70939388947328
C         5.49248730154531    5.12673753949829    5.63542388958162

