42
CSD_code = BOVJAY | q = 0 | S = 0 | Stoichiometry = C17H13Cl2N4O5V | MND = 6
V        16.44760969829732    1.75139398477560    6.64699397090620
Cl       10.05255083691279    3.94221017775265   11.85671192805588
Cl       20.02448360160123   -3.29463797077398   12.90668748777293
O        17.04914554667067    0.49952866727776    5.48875220986909
O        16.56824978529263   -1.19154236905289    4.10971649332521
O        15.31816660715662    2.29382979942096    8.08414942182513
O        16.85610876578960    0.11972741107367    8.11881802684978
O        16.13922945855830    2.92237480798729    5.73195169173702
N        14.81866188969475    0.69373705316346    6.36582543185904
N        13.75051590901591    1.01392131926413    7.08803044333583
N        18.55758478425252    1.51979874328623    8.36928664103868
H        19.39504528619187    1.84631148761888    8.84230801341409
N        17.96457362720781    2.27067967684308    7.40566961116988
H        18.48054291535916    3.13016824184123    7.22195410061202
C        16.26538617942952   -0.34405396544790    4.91914813103875
C        14.84701765940660   -0.18822083205538    5.44063254661715
C        13.70889506786657   -0.99877662712872    4.93788394565124
H        13.07376140260625   -1.31270615334060    5.76482498356326
H        14.09518847004391   -1.85659971212722    4.39224579926599
H        13.10534448324078   -0.39380451442434    4.25995890066106
C        14.11312026308762    1.89249568808352    8.00294395534482
C        13.10153155812558    2.38517764392340    8.95186490762310
C        11.79289466533745    1.90516663867921    8.91835703529509
H        11.53048052058337    1.16088077618539    8.18424511870689
C        10.85439017575876    2.38259992878041    9.81102556805864
H         9.83967795679973    2.01712814042322    9.79130079148641
C        11.22369181707007    3.34534815380417   10.74142165184286
C        12.52130729953332    3.83572733379495   10.78492028409330
H        12.78909252144745    4.58734948981106   11.51091965299237
C        13.45574336171501    3.35389235563321    9.89008803466314
H        14.47008234449552    3.72470757352104    9.89888601537635
C        17.91531512940325    0.37841348520402    8.69734762065682
C        18.49039475332214   -0.49618448800303    9.73771700206527
C        17.65097630661471   -1.45960183249330   10.30074638055216
H        16.62909337149859   -1.51511941481044    9.95745257507656
C        18.11301134927241   -2.32040868840354   11.27468974845115
H        17.46005135601691   -3.06061847234277   11.70891042439179
C        19.43420720654099   -2.22868811212671   11.69137569515584
C        20.28877232635242   -1.28815776327388   11.13099127727754
H        21.31667503287832   -1.23862177346120   11.45380945741891
C        19.81874790552156   -0.42647619401536   10.15919942021757
H        20.50898080402550    0.27695030513859    9.71823760468325

