18
CSD_code = BOVKON | q = 0 | S = 0 | Stoichiometry = C7H8Br2Pd | MND = 6
Pd        0.87892728145255    1.85779977440449    8.27127577185605
Br        2.35027418354428    1.85779936693668   10.10579658890259
Br       -1.00309435309989    1.85779945476901    9.67720139718907
C         2.27396230246393    1.17031264264839    6.75315334398542
H         3.04132418528582    0.51272546306847    7.14734743380424
C        -0.09018810785017    1.17034572425181    6.45136171708477
H        -0.93155830667986    0.51259925655891    6.64095003793640
C         1.20029593796519    0.73707010853522    5.75288361905573
H         1.24437105784228   -0.29292236248181    5.40759869419129
C         1.33378939261031    1.85779993198731    4.70674878596216
H         2.29819923566460    1.85779988497039    4.19913714633847
H         0.52758980746037    1.85779986940739    3.97335344520124
C         2.27396241369505    2.54528763903969    6.75315314701453
H         3.04132456817094    3.20287510037544    7.14734648162111
C        -0.09018817358725    2.54525453712127    6.45136157485996
H        -0.93155845721575    3.20300127248267    6.64094909713064
C         1.20029595817411    2.97852994405538    5.75288334280035
H         1.24437107410359    4.00852239186936    5.40759837506596

