45
CSD_code = BOVMOR | q = 0 | S = 0 | Stoichiometry = C18H18MnN3O4S | MND = 6
Mn       13.18502530139732    0.25373816189560    7.16848775506630
O        15.52849801494025   -0.03685073664006    7.46995225417299
N        13.64952160252634   -0.92175613205630    5.61784741246329
N        13.50410971590014    2.00545081378383    6.23050873859116
O        15.70612128017539    1.02773635939122    4.85690773413014
H        16.01547693473116    1.94146448568587    4.85991667551769
O        12.84997869948928   -1.26014431692310    8.23946016014823
O        13.35110688246689    1.18686873542534    8.75110824189107
C        13.89472099772738   -0.43391718729404    4.27026800321667
H        12.94895457823058   -0.44496289417553    3.71352390406859
H        14.60700426669156   -1.09144298205272    3.75400588700527
C        14.45036782374675    0.98780802398739    4.19571468149770
H        14.59784589164081    1.22135408503225    3.12849991871632
C        13.47495293713542    2.01722499969059    4.78260346421683
H        12.46199935910079    1.77039833835849    4.44791243837296
H        13.73161075824428    3.01655111960737    4.39829609265678
C        13.84153145717620   -2.21051642499697    5.74026148538410
H        14.21053701797016   -2.74844169289380    4.86172139847284
C        13.62399155154710   -3.03010550181303    6.86540855826613
C        13.11759939349208   -2.49071414961408    8.09575831840107
C        12.91013525348894   -3.39974332312479    9.17449577485393
H        12.52667321408594   -2.98961063409771   10.09644206039862
C        13.19180592545884   -4.72819300156611    9.04771131854519
H        13.03055690556376   -5.39575726689552    9.88211569274218
C        13.68916891356647   -5.24725678950339    7.84023550395944
H        13.90265006357423   -6.30218193697045    7.75922394118586
C        13.89435487497572   -4.41309312570753    6.77823981000705
H        14.27164800317804   -4.80570134272254    5.84346430227695
C        13.60371696472235    3.18130167811990    6.78336101972266
H        13.68283603076462    4.05673732224533    6.13079272277995
C        13.63382637977014    3.46604301801673    8.17210959949669
C        13.50011737410056    2.40582643034102    9.12177392107470
C        13.56991947628791    2.73718461885729   10.49695167674590
H        13.46435486973547    1.93367140094036   11.21021950130149
C        13.73475530004928    4.03547534321563   10.90282465286901
H        13.76983836664795    4.26733922403480   11.95734296423984
C        13.85610777533978    5.06940012684075    9.96752995161152
H        13.98419638027721    6.08634819807521   10.30525643154000
C        13.80764916992198    4.78455206688066    8.62733290749845
H        13.89875304834692    5.57759819911326    7.89749979082707
S         8.71267931712348    0.25716556654601    6.16697049623172
N        11.41777197017693    0.33837505947637    6.70716214357393
C        10.25134607163215    0.28401860130599    6.51932987972859
H        15.93999588550488    0.47003421996326    8.17662736568814
H        15.91538800137342    0.23492324221630    6.62062344884839

