69
CSD_code = BOVNEG | q = 0 | S = 0 | Stoichiometry = C30H26Cl2HgN10 | MND = 4
Hg        7.32530133332088   -1.48528750790290    3.65629663517870
Cl        9.27690256649597   -2.42341550807247    4.36840610897523
N         6.67986207225409    0.28722428864373    5.15565292301877
N         5.60954927220826    1.98057333477079    6.10749720808925
N         4.95439737146411    4.25566483396194    5.96243371780123
N         4.95499740307904    5.29346343314521    6.82081414942676
N         5.22497020584004    6.36889196787927    6.22069674902656
C         4.26824231080302    0.50105439209447    4.60891456847070
H         4.43538621572293   -0.41324372882813    4.04258983027107
H         3.90358806360510    1.27169359324586    3.92999834925927
H         3.50164563318410    0.30605531098721    5.35854707656154
C         5.53167160802848    0.91073810108390    5.26346437846742
C         7.57468208928789    0.95986022542296    5.96461432901235
C         8.91587841800400    0.71686172396900    6.23664510074504
H         9.42633141680080   -0.11869890374502    5.78415380437058
C         9.54432150977897    1.56690969161732    7.12401541033758
H        10.58410977980611    1.40491218564670    7.36387972597894
C         8.86994390688426    2.62653159480446    7.73429725201157
H         9.40237440641340    3.25833452094870    8.42920829206243
C         7.53708488623823    2.88365703789308    7.47395923331352
H         7.01576712784404    3.70196496828183    7.94733612367069
C         6.90627099442986    2.03513712819086    6.57815755485736
C         4.58969275297845    2.94188095085418    6.41275324764032
H         3.65105649296331    2.62635066746069    5.94288218290232
H         4.44812098229737    3.02345895056385    7.49823390759626
C         5.26838738289344    4.70812778408377    4.71208370003057
C         5.45347339088142    4.11186037191746    3.47126326150680
H         5.37064905321447    3.04615455461584    3.32193797320887
C         5.76184706813430    4.95501824327495    2.42721733939773
H         5.90859834105519    4.53374405949038    1.44462210544076
C         5.88507817690235    6.34080701155425    2.59452236324798
H         6.12080273199118    6.94504956096136    1.73195174105810
C         5.72951410231570    6.93771540366432    3.82244495588517
H         5.83199094474771    8.00037566969671    3.96544646823163
C         5.42892429727907    6.10447350934480    4.89814559750036
Cl        5.37364634172045   -2.42330994483563    2.94417193278169
N         7.97073219899398    0.28733349258919    2.15700581855187
N         9.04105205194328    1.98060096281873    1.20502250603101
N         9.69617407277346    4.25569132960463    1.35005105246877
N         9.69547265243267    5.29349489009120    0.49167677552458
N         9.42544927208554    6.36890166180757    1.09181137263147
C        10.38238391457135    0.50109973111131    2.70361246227554
H        10.21524747386473   -0.41320541401026    3.26992875034476
H        10.74705102689788    1.27172613214289    3.38253584685386
H        11.14897129344161    0.30611781435286    1.95396543079128
C         9.11893974183641    0.91080055639614    2.04909971689042
C         7.07590034290653    0.95993838051663    1.34803117908917
C         5.73468774324373    0.71695919735434    1.07606349200923
H         5.22421515340353   -0.11853208058197    1.52866032011984
C         5.10621924087468    1.56700606405202    0.18871110168107
H         4.06639986380995    1.40505770266107   -0.05105365203432
C         5.78058602775587    2.62660726752059   -0.42161657051589
H         5.24814571886270    3.25838359515464   -1.11654549742650
C         7.11346733114025    2.88369957447469   -0.16135935327862
H         7.63479891579740    3.70194633383647   -0.63482764319647
C         7.74430376618248    2.03518928971460    0.73443638990096
C        10.06088880831735    2.94191518523568    0.89971580061988
H        10.99955048909328    2.62640184317603    1.36954736124358
H        10.20240915859736    3.02348997247323   -0.18577153377272
C         9.38221774538341    4.70812904289946    2.60041804579527
C         9.19722277854938    4.11184215448822    3.84124250841134
H         9.28012892057277    3.04614274753308    3.99055975879351
C         8.88885229272796    4.95497315725014    4.88531046504094
H         8.74217221159035    4.53367947863335    5.86790832489135
C         8.76553720642979    6.34075596247738    4.71802275746841
H         8.52979113036723    6.94497688501225    5.58060239608222
C         8.92101995145956    6.93768400313894    3.49009839998381
H         8.81844399753911    8.00033530746057    3.34710405147960
C         9.22160685568222    6.10446830187749    2.41437686790234

