53
CSD_code = BOVNUW | q = 0 | S = 0 | Stoichiometry = C22H24FeN2O4 | MND = 4
Fe        6.32764853849966    4.60752900572303    2.87567896469089
N         7.59837451589459    5.68588371727060    1.37562347836173
O         6.32685225489565    3.34341457610212    1.67795057789620
O         4.89287336400811    5.01141178948209    3.97467869340314
N         7.32368542482875    5.92857365776812    4.05072120683352
C         7.78051467083637    5.30093663711100    0.16343989627573
H         8.48926769234635    5.80652673765834   -0.49826575797523
C         6.37600151523775    3.26727063360803    0.37871484274766
C         5.73073681379940    2.16930200350381   -0.27104280339867
C         4.68228465635202    5.57294199152012    5.11050966800715
O         2.53913455712525    4.60920811372478    5.11755422461388
C         3.41933392422246    5.42316692611567    5.77329259651733
O         5.04033459814367    1.35343446807866    0.57509079816371
C         8.39718598670241    6.71682757347258    2.00271129097384
H         7.78479077161685    7.63138667372364    2.00293853401289
C         6.92355703662600    6.57094684964953    5.10453774949355
H         7.58257431102648    7.32252766333062    5.55091154660677
C         7.10280219125827    4.18739662668987   -0.42406860990667
C         6.58070700618559    2.90397276210249   -2.40229744901535
H         6.65355620730905    2.74828486583797   -3.46776981175150
C         5.66709727528192    6.39111155710266    5.73619402632363
C         7.21011882314839    3.96322442648542   -1.80922252721132
H         7.78631082250877    4.65816333561192   -2.40343516665281
C         8.60324693029551    6.29120605954281    3.47713251329929
H         9.04432635500890    7.13996510688614    4.02526319684270
C         9.56165839745439    5.09643776112051    3.55491600672622
H         9.09717849056053    4.25262739241524    3.03368902552289
H         9.69040260586865    4.81596008795505    4.60178268399975
C         5.82978103985307    2.00700458465336   -1.63360371769752
H         5.33681681822309    1.18532767581519   -2.12873859736840
C         9.76386920407157    7.03375615229723    1.37793975999625
H         9.64054020949778    7.34932316413911    0.34047826991975
H        10.18880976979455    7.88045643817951    1.92204277369864
C        10.71944783262073    5.84703659301116    1.46957410278077
H        11.68135946126462    6.11810532107228    1.02904658409608
H        10.31705580544837    5.00219195673544    0.90788467604284
C        10.90807983829486    5.43380138722347    2.92506690157536
H        11.57001061620125    4.56817660559915    2.98421775838128
H        11.37616622165501    6.25185248005742    3.47895588110026
C         3.17817648454839    6.06399876357022    6.96302777815783
H         2.23106306393237    5.95176705525177    7.46737401011043
C         1.28539750179086    4.38043993471237    5.70337720656342
H         1.37924243113605    3.90686940454944    6.68719144875882
H         0.76244929500754    3.70478804918947    5.02809265198769
H         0.70986830196461    5.30759353507422    5.80390495563523
C         4.15615331582275    6.88164043151027    7.55034170451517
H         3.93231476429199    7.37563132815416    8.48342206804560
C         5.37079742606106    7.04512219401196    6.94871602559497
H         6.12831353086061    7.67014921281312    7.39975448880990
C         4.32804990438804    0.27502673538438    0.02794545513207
H         3.56555994473593    0.61389511213627   -0.68180070422840
H         3.84246572797228   -0.21494907122690    0.87040069398557
H         4.99385575351869   -0.43834404351334   -0.47054157099367

