44
CSD_code = BOWHOK | q = 0 | S = 0 | Stoichiometry = C12H22N4NiO5 | MND = 6
Ni        6.86016330231319    2.50570108041903    1.77624073040163
O         5.78984877866132    1.54381039186211    3.01147700743997
O         6.53657328413752   -0.48250559168176    2.45490600753651
O         3.56523088014203    1.59431236315246    1.37224630414599
O         2.86641526874479    2.67711556583193    3.18804223406145
O         5.92590569705733    1.02291211062840    0.09407921125288
N         5.25625077422920    3.66039824232839    1.15790175115292
N         6.75729115922609    4.23944425391521    3.46575963885955
N         8.47688407559774    1.41957557555155    2.29542306305465
N         8.08092479768885    3.25864353786200    0.40329796455779
C         5.02831874381304    4.90737995974812    1.88355092070292
C         5.35681195445660    4.67070468271999    3.35569063712713
C         9.58583564450430    1.62756347048752    1.36760211108332
C         8.99504418921177    2.15971873229070    0.06251340564673
C         5.70098726667243    0.28220840163502    2.96814290001250
C         4.45436695831674   -0.29122386088690    3.57521900589609
C         3.23581695596230    0.34916889617373    3.36037672758688
C         2.07758719169256   -0.21383045169696    3.87547395389547
C         2.13512274064944   -1.39800840020787    4.58971431824174
C         3.35005931803198   -2.03401621098565    4.79405571612957
C         4.51150193238145   -1.48372165198259    4.28472425191837
C         3.20541998056036    1.66407059381260    2.58130621959861
H         5.23150323099442    3.82750412879335    0.15371522617485
H         4.45890336737237    2.99658115511552    1.33559615768873
H         6.89429636342545    3.78749467483000    4.36395814246243
H         7.37107278313236    5.04983148269160    3.42521638823803
H         8.78304402420736    1.44155703050675    3.26422917685866
H         7.99718318588166    0.50266997203176    2.15952059058688
H         8.60704095917619    4.05288952444044    0.76353350953353
H         7.58854793786094    3.56125759245795   -0.43292797659484
H         3.98370332409991    5.22563325428493    1.80189723238434
H         5.67477192704840    5.69484439699967    1.47552087093332
H         4.71185742260279    3.86024233630603    3.70217551040211
H         5.14871152372571    5.57655112289445    3.93899317759827
H        10.26921376885873    2.37402069797647    1.78771494633475
H        10.15407913167565    0.70749626205452    1.18194365278005
H         9.78883619043216    2.47952965420413   -0.62597623316638
H         8.40100271790190    1.37651172756664   -0.41427154504455
H         1.13402579941565    0.28679136990460    3.71484611139208
H         1.22839216654253   -1.82962930620319    4.98992693391735
H         3.39119464397640   -2.96059695083096    5.34910913066935
H         5.46651968946487   -1.96843192413741    4.42748392266649
H         6.15653505427648    0.17693610498668    0.50155029932704
H         4.99070389387752    1.15599400214633    0.36360069455261

