73
CSD_code = BOWNOR | q = 0 | S = 0 | Stoichiometry = C32H38Cl2Zr | MND = 12
Zr       -0.31407565310906    2.91405437432862    5.50058755820509
Cl       -2.38576496955112    1.92422194102473    5.15834132844848
Cl       -1.09660060098428    4.89204855685897    6.44612491436181
C         1.71389898085153    2.09076051576920    6.49156795876535
C         1.26100802122122    3.01573003043648    7.50449394042244
C         1.77925796751570    4.20887830033061    8.05845028986024
H         2.72152470527641    4.62129892411599    7.73803734285227
C         1.10757555256244    4.84667459331520    9.07468311865020
H         1.51993653362353    5.75789537066358    9.48235870670518
C        -0.08709248373270    4.34954343685307    9.60732779581847
H        -0.58025496870182    4.88656198593687   10.40242718347345
C        -0.61558010612541    3.17409770222267    9.12973119451141
H        -1.52294559322205    2.76107643177108    9.54955839855676
C         0.04096169556967    2.50365119103698    8.09289700272895
C        -0.26541591980999    1.25403003600873    7.46000282559569
C        -1.30708077675709    0.34732216027829    7.68969346487634
H        -2.05780681848373    0.56501103625097    8.43748651134426
C        -1.35595015618803   -0.81567602134408    6.95881192476164
H        -2.15538803355200   -1.52328726448144    7.11283068643088
C        -0.35389425653070   -1.09929087505884    6.02257929128643
H        -0.39757012566399   -2.03274842852466    5.48036997181728
C         0.69365257279055   -0.23970934814929    5.78721864491905
H         1.47363260612464   -0.55802178627367    5.11338840534662
C         0.77781045965643    0.98709579940559    6.48967830727744
C         2.70635190905278    2.37447051646757    5.34696169717265
C         3.53725479151062    1.13761806597729    4.96362531950716
H         2.98474196000739    0.43679245797333    4.34960166577162
H         3.87761181414138    0.62638677173231    5.86109438181975
H         4.41020345168323    1.44243446323318    4.39068110199741
C         3.70940544927421    3.49149080718853    5.65994220562820
H         4.37692097848019    3.61839111205839    4.80924762079648
H         4.30744358538402    3.22574551026477    6.52863748700873
H         3.22188008141938    4.44398950269369    5.83706412490086
C         1.73398981577809    2.81322572720380    4.25098552754763
C         1.17052884906944    4.12253029037344    4.14292002368864
H         1.60063905801539    5.03264655735722    4.54262244665936
C         0.01446969918437    4.05284487404806    3.31021033093320
C        -0.14916727642661    2.69360601405851    2.94710284239976
H        -0.88015359153936    2.30117182224778    2.25253478240269
C         0.88817626273489    1.93708990118116    3.52532358858235
H         1.05976153513071    0.89212274829945    3.31049312797812
C        -0.87867883490314    5.16259111312116    2.78986832143204
C        -2.32160090167480    4.85229391433137    3.23193745483083
H        -2.64258756859637    3.87904601188338    2.86060534239010
H        -3.00370373528865    5.60498013434345    2.84002695218484
H        -2.40055638447804    4.85330451396144    4.32132924724320
C        -0.83160766068605    5.19516795948716    1.25071469467937
H        -1.05607369238580    4.20494598245299    0.85175362662053
H        -1.60261709538623    5.88041375924536    0.89135474395533
C         0.52780798390319    5.65857512028386    0.74028914845958
H         0.53614078250984    5.58745721532085   -0.34732351874417
H         1.29634136248637    4.99220030187144    1.13430577867775
C         0.80148095751002    7.09581218754340    1.19189061548545
H        -0.04551817198047    7.71463558698983    0.87059339225465
C         0.82530359950664    7.09620780606683    2.72303886967669
H         0.95578915967853    8.10980153268850    3.10200009697162
H         1.67337444393604    6.50075515627263    3.05578909178837
C        -0.47720814628644    6.54985919669101    3.31336320588224
H        -0.40736457518575    6.52024352082213    4.40425114769096
H        -1.28079842406787    7.24475690016860    3.05728974154834
C         2.06940960502924    7.71623757571857    0.54642572400959
C         1.83517301030377    7.90537730788034   -0.95800548322495
H         2.69385405495231    8.39651439690058   -1.41078510356967
H         0.95772475916426    8.52356807911613   -1.13469090536368
H         1.69384956825598    6.95422467898596   -1.46339275406735
C         2.34485882070714    9.10166698042454    1.14581150760114
H         2.71290818151200    9.02666050363531    2.16513974908326
H         1.44301611267094    9.70974070960211    1.14287254158826
H         3.10177214192361    9.61622127432471    0.55754926658265
C         3.31092998958982    6.84259757506608    0.74317804306008
H         4.18417600390595    7.35130395195757    0.34001054516238
H         3.20741531852200    5.89207937549116    0.22742825287211
H         3.49239232940512    6.64888387184030    1.79698562164226

