75
CSD_code = BOWSEM | q = 1 | S = 0 | Stoichiometry = C34H32N8Rh(1+) | MND = 6
C         6.83528504179717    7.14880428583400    4.13964101933768
C         4.37297414094839    7.47776347381951    4.18119305741648
C         4.14171046689802    6.83658315267618    5.39523791871801
H         4.96300717557315    6.66166700517552    6.08302063041306
C         2.85651487054774    6.43019718610640    5.70407599675622
H         2.66695233965121    5.93313863262602    6.64199670314257
C         1.81617710840025    6.65932165032752    4.81700479397939
H         0.81734984001462    6.33268445989706    5.06043756375233
C         2.05323091493164    7.31272994588886    3.61767549437904
H         1.24275697535573    7.49365708217321    2.92906596510949
C         3.33156115353566    7.72848212977584    3.29418601904006
H         3.53725540229298    8.23375440180000    2.36281298270758
C         7.93907123677880    9.72199183793768    2.10978613015493
C         7.26051256787675   10.72008791572407    1.41999430344520
H         6.18904268165887   10.79918507464824    1.51035156570875
C         7.98377190732160   11.59640332699471    0.63318022558679
H         7.47152213742181   12.37754787472303    0.09396203421827
C         9.36244544796758   11.47501233093477    0.53827102681938
H         9.92000611792610   12.16406006772092   -0.07663734029949
C        10.02765572505965   10.47522179535160    1.23223014905637
H        11.10013641103094   10.38715791059173    1.15846462623431
C         9.32026463600485    9.59037748939817    2.02353856119917
H         9.81105033586497    8.80473909335864    2.57474533446922
C         7.99706866436516    6.03400609130372    6.78292899975033
C         8.94673411197025    5.83096263057365    5.80485029033212
C         9.84197872635543    4.62159144244325    5.69198992346659
H        10.28876023583673    4.62530941128168    4.69423889355297
H        10.66272450538621    4.71982121876464    6.40966209065498
C         9.11534680297087    3.28028758951635    5.91137440715484
H         9.12382750438527    3.00681226220158    6.96633606697652
H         9.65889040856677    2.50056586698569    5.37478019184158
C         5.64111887856689    4.77945175997181    3.62334395269006
C         6.60430787703094    5.65812703378795    1.50810567914387
C         7.93881388152464    5.41047848647772    1.81811588991762
H         8.19259399734308    4.72007609235655    2.61622305610170
C         8.92528064683428    6.05653426727621    1.09575716594852
H         9.96192388194934    5.87106907143298    1.32745057202264
C         8.58787762253025    6.93660327787016    0.07922008406666
H         9.36212571928587    7.44323942097354   -0.47528251832032
C         7.25663952131867    7.16523555236674   -0.23231849728697
H         6.99453106964863    7.84800168985721   -1.02535634758468
C         6.25759974416205    6.52530459755812    0.47758459454605
H         5.21525393358202    6.69414844795643    0.25381179553197
C         2.41611325105683    3.91731233783419    2.72048331926208
C         1.72593192245526    4.02410739363224    1.51854638161094
H         2.23102608038658    4.39972660238796    0.64318505140846
C         0.39958573483470    3.63808985510297    1.47497851508838
H        -0.14844891563710    3.71307693277782    0.54903406025013
C        -0.22488287683466    3.15411203560106    2.61527237477306
H        -1.26020368517939    2.85397726502528    2.57285361184935
C         0.47545496250559    3.05092371853214    3.80798055328999
H        -0.01312657219798    2.67016034092202    4.69099432612646
C         1.80220833429971    3.43229940689567    3.86952737333088
H         2.37106813747075    3.36221637127182    4.78243771795780
C         7.68570600848923    3.30921049225151    5.41949989323388
C         6.60210555738206    3.62080285799266    6.21228251451114
C         6.67069174533648    4.05262868964635    7.65645661594348
H         6.82634067697071    3.16885218143425    8.28341665651443
H         5.69816446429022    4.47026878169149    7.92997904213288
C         7.76553534543879    5.09757242124644    7.94753035460544
H         7.46265040073664    5.68275784988314    8.81767786244707
H         8.70519221868413    4.60834086033101    8.20357074315055
H         7.66714518378879    7.05989634065234    6.95391102035387
H         9.32163924697195    6.70082332073502    5.26697229331155
H         7.49861417882580    2.70008657012216    4.53379467010155
H         5.62604572518905    3.23585661169401    5.91962456426103
N         5.67987726802508    7.82781886130778    3.82203820615115
N         5.94492851925900    8.85563060061770    3.03964974637599
N         7.22717994875355    8.81780377163274    2.90014961458229
N         7.80381744153495    7.82458487943129    3.54220781597068
N         5.59435923296539    5.06883438505847    2.27774222299444
N         4.40574685632526    4.78496741799479    1.78228008182177
N         3.75195380029872    4.31666540959038    2.79133940449713
N         4.44668299268801    4.28558083014225    3.90827303565015
Rh        7.01564444649251    5.33732027209715    4.95875930456201

