49
CSD_code = BOWVEO | q = 0 | S = 0 | Stoichiometry = C10H24CdN6O6S2 | MND = 4
H        -0.60682686025351    2.72013062419122    6.30749139272197
H        -0.20066092273467    1.16724842029236    5.55810124276132
H        -0.19007533890829    1.31336620103719    7.32277996112360
H         1.15816158990641    3.25990005351564    8.13121199428952
H         2.13976341438967    1.79644359485520    8.32099194375986
H         2.82003049681401    3.24604211836514    7.53446798645080
H         4.99365994839213    1.07311289614446    5.60258472631328
H         3.75886163276007    1.08985022702707    6.84877767933795
H         4.92713512128165    2.43557681535379    6.74028983336567
H         5.09623605485041    3.21225192925210    4.27614018378245
H         4.25144199454769    1.95433948307361    3.33527045005520
H         3.53414976815887    3.56965082370897    3.50763479245766
H         5.73405369635576   -2.66189894734892    1.91492685981522
H         4.58286779090010   -1.57457529459624    2.73575483025659
H         4.17309501716435   -3.28513216769224    2.49216574650173
H         5.73259294443709   -1.90150249827834   -0.56306059779410
H         4.38085409185386   -0.76348498032779   -0.81842056025336
H         5.44093166143093   -0.56060004946768    0.56467819404523
H         3.90095590768948   -3.03962336978785   -1.59434401917941
H         2.34805378713890   -3.31925177355390   -2.38694032715542
H         3.09053442088571   -1.71192285858413   -2.46795410440362
H         0.36324894390496   -1.51079188193348   -0.01374223183513
H         0.60732419623903   -1.64107988584799   -1.76269106000120
H         0.31331813295571   -3.10458089639238   -0.78525138530713
Cd        1.83284653282880   -0.02604562028292    2.87771716233331
S         1.25050667428474    2.32998448613724    3.76323551961468
S         1.76171442001492   -2.43743375993947    1.95365474930855
N         1.42589757217539    2.19377806280596    6.38263299513895
N         3.45334169091047    2.41299301182740    5.23849064446009
N         4.10845081132769   -2.13820067782157    0.75414588267664
N         2.22434044772907   -2.24566673042928   -0.62684473351358
N         2.34295024780726    0.65995774463003    0.57591699089865
N         2.16854777604328   -0.64054046027532    5.23084574619664
O         3.23130856765184    0.65561658048675    1.44479071334647
O         2.63746703833619    0.75887768580587   -0.58797760606774
O         1.16615518687063    0.53584017808835    0.92343996936258
O         3.14186927067054   -0.48022036808494    4.47507517396517
O         2.33328215703816   -0.70069473203390    6.42262899526783
O         1.03797540868489   -0.71013860985998    4.74307844408327
C         2.11198852090101    2.27084836120432    5.23477056713828
C         2.77147526123035   -2.22049974182098    0.59552124407733
C         0.02577358874003    1.83297759734048    6.39037763693930
C         1.92674513116390    2.64194098207572    7.66264579711459
C         4.32518747282642    1.72270820257937    6.17216109319445
C         4.12056312533028    2.80528634398832    4.01482332263783
C         4.67966859941275   -2.42736858655009    2.05286428870600
C         4.95949129576384   -1.30359712097316   -0.07508782200631
C         2.94226944177308   -2.58916101248380   -1.83382173771783
C         0.79457627037067   -2.12371039937779   -0.80464856829429

