120
CSD_code = BOXBOG | q = 0 | S = 0 | Stoichiometry = C55H58N4P2Zr | MND = 5
Zr        9.70670712344316    2.06645761125501    3.23446003431565
P        12.57183031155831    3.43014794957873    4.13470450122252
P         7.54051590763333    4.51781620287975    3.49689980761431
N        11.88629848909957    1.98906499092594    3.87778026900587
N         7.62399145552371    2.90875472446959    3.38703250526049
C        10.03248973493714    4.03901133031543    4.15574114244781
C         9.10503312374790    5.10318701985228    4.04429467455756
C         9.78442687522907    6.35892080290857    4.12279957805123
C         9.34747214171155    7.67800541147503    4.06092041257131
H         8.29828552833174    7.89623128589218    3.90491105274408
C        10.26856057221236    8.69574044668724    4.18715829937815
H         9.94338893088344    9.72569699883307    4.13504950900854
C        11.62222646656106    8.41763137391218    4.38298819804508
H        12.32098718123713    9.23694664497680    4.48301161323636
C        12.08159592597723    7.11897152098593    4.44739885416424
H        13.13729567772901    6.92036210976201    4.59190397073876
C        11.17499329747346    6.07005879930059    4.30917004173445
C        11.30535126400519    4.64159177459553    4.31150970787688
C        13.63130246240991    3.80567991635441    2.67649594882726
C        13.58626877101433    5.04797001332890    2.05694531552926
H        12.91134248968279    5.80597406411287    2.42618788544298
C        14.39393549383992    5.30936558891647    0.96381765648073
H        14.35376319133703    6.27757408145768    0.48643135693448
C        15.24873104406583    4.33316432428181    0.48045305446962
H        15.87734906369371    4.53811810381925   -0.37375036082509
C        15.29435388613722    3.09003792564645    1.09157016992833
H        15.95846466317085    2.32576711270090    0.71339792806530
C        14.48992271545201    2.82921706255197    2.18474498387247
H        14.51650888820929    1.86045947955484    2.66259878929247
C        13.84629458983428    3.42547706696257    5.45104909197836
C        13.91122369412532    4.49352229616495    6.33728018468350
H        13.18959314310426    5.29289553306181    6.25464619011944
C        14.87950616368108    4.51828383430394    7.32469799079333
H        14.93048309691936    5.35262678545239    8.00906294651177
C        15.77800523349443    3.46997270818391    7.43971157700707
H        16.53083812538668    3.48623146416982    8.21411091904734
C        15.70641672562001    2.39668625897250    6.56647132457175
H        16.39938310825410    1.57371525312996    6.66350069065838
C        14.74743723501645    2.37406191074283    5.57003422035842
H        14.68511938518832    1.52890932376392    4.90083573017626
C        12.08309660973097    0.84336319042138    4.66464266631903
C        12.01244409981211    0.82405063487314    6.06674309395563
C        12.30356278311774   -0.35477884598161    6.74267985147893
H        12.26520340624844   -0.35109248914261    7.82373511012574
C        12.61796995163046   -1.52917703567559    6.07961014056164
C        12.59156818455365   -1.52090637375981    4.68961244121771
H        12.78546714562606   -2.43845397991200    4.15027712432171
C        12.32916302400109   -0.36366917772240    3.98063367425308
C        12.28166575203463   -0.36445565431449    2.47987375416243
H        12.21878054247505   -1.38199510929244    2.09874155676176
H        13.17464040778035    0.10406192950935    2.06193395753621
H        11.40955553237708    0.21704705795309    2.15112435733837
C        12.96363305051681   -2.77870851483794    6.83374322251857
H        12.60033711768272   -3.66047194930039    6.31010103546206
H        12.53388481684710   -2.76041288764459    7.83252932490133
H        14.04604911952801   -2.87054450723506    6.93364038111203
C        11.55398391711930    2.01451130545597    6.86247144564913
H        10.81539592958800    1.69468146929280    7.59843778568752
H        11.09521275131029    2.76971822479952    6.21409954594708
H        12.37879881366200    2.47119620696334    7.40981411315423
C         7.21081482530042    5.18214830132419    1.82239285284413
C         6.55184283118248    6.38604184437606    1.60690843227438
H         6.15644789533530    6.94126170619724    2.44652109579157
C         6.39522905229987    6.86380913151995    0.31771610002183
H         5.87993520415022    7.79834860461835    0.14858713889931
C         6.89693851150313    6.14581877956535   -0.75549242198404
H         6.77045231656790    6.52127019209241   -1.76057970405712
C         7.56310592326697    4.94868336738833   -0.54004511054473
H         7.95543916519255    4.39251089442374   -1.37976482574922
C         7.72643299969485    4.46816400786099    0.74634873972556
H         8.25201754966049    3.53641887717625    0.95003453391061
C         6.08374384709481    5.11427874481388    4.41892046205514
C         4.83190354562902    4.61824187720865    4.07609497335284
H         4.74833037177133    3.89738162943282    3.27420807259476
C         3.71142660595032    5.04542489508323    4.76438210986000
H         2.73799810037113    4.65406283510183    4.50772583196548
C         3.83803265034607    5.97823137438609    5.78205290543467
H         2.96114711728335    6.31506575416457    6.31538931887614
C         5.08526747179341    6.48090159255049    6.11734808431836
H         5.17915228621621    7.21098670243347    6.90818217894092
C         6.21133578310132    6.04399379387102    5.44199778563369
H         7.19363162533372    6.41440533227885    5.70037267839548
C         6.69745488586718    2.02852276222233    3.96790664543338
C         6.40069289854722    2.01470036221339    5.33823948177358
C         5.44453039163420    1.12593159419355    5.81462138439894
H         5.21401756380443    1.13332367609298    6.87153806547397
C         4.79403731727936    0.22922231061341    4.98413729563350
C         5.13653458147198    0.21565479146660    3.63637718579190
H         4.65596186288421   -0.49360668247116    2.97577521690661
C         6.06764344738688    1.09762638222259    3.12162351416394
C         6.42315529641957    1.10198877642650    1.66404380696354
H         6.02040998546743    1.99534121907829    1.18163119305665
H         6.01806879745269    0.22479559075184    1.16386242159997
H         7.51413808447854    1.12677340429441    1.55658991183797
C         3.77458086701883   -0.73225979458866    5.51932589079939
H         2.90523176426103   -0.77489499018061    4.86557145980700
H         3.45066326652547   -0.43958251181324    6.51498316810670
H         4.19636404850396   -1.73624079170537    5.57855091274764
C         7.12596128911583    2.89640004900085    6.31517379158547
H         8.01398354494561    3.34436400628555    5.85490872551743
H         7.43742027820053    2.30844581709854    7.17872244887367
H         6.47746984397712    3.69311713123001    6.68029193608082
N         9.99106201743243    2.15069450383825    1.18434869474800
C        10.89596727281810    3.22269507320479    0.82151857359181
H        11.93641215102355    2.86148959312016    0.68286318514233
H        10.89317719645719    4.00483681678697    1.59288071614808
H        10.59946887804292    3.69425246284893   -0.13527109800120
C         9.95503733444997    1.18690630023479    0.10539485135372
H         9.53435230528239    1.63925326343800   -0.81370563475118
H         9.33375729675004    0.32398452917243    0.36409811468186
H        10.96556156541005    0.81869775625917   -0.16364577005276
N         9.17844325238196    0.24888791635506    3.97216572318570
C         8.90583530900959   -0.98023418805591    3.26613062088696
H         9.54810410996049   -1.80333198400992    3.63521848123922
H         9.08522348631786   -0.86304774659158    2.19306457729656
H         7.85590646027763   -1.30290501377479    3.41020422840844
C         8.95520440011824    0.05105101644604    5.38468317727938
H         7.91765142512268   -0.27536592406511    5.59010015360618
H         9.13959414996528    0.98513663433479    5.92576708925498
H         9.62448956242804   -0.72984495053290    5.79423627865337

