147
CSD_code = BOXDAU | q = -1 | S = 0 | Stoichiometry = C62H70CoN6O8(1-) | MND = 6
Co        6.39522399716477    4.22865493273899   10.52151754819809
C         6.58023742203213    6.88208912206668   12.04424250404070
H         5.91383399210152    7.75391106998747   12.11578257238332
H         7.40174056363509    7.11850153834735   11.35931108226410
N         5.79585113206566    5.79089564687543   11.49255292361510
C         4.47467926438099    5.95898886692024   11.51574001654966
O         3.84598734247106    6.87659307774892   12.05492825727324
C         3.80377247637973    4.88076846245420   10.73867335643967
N         4.67558962354980    4.06543633275946   10.15502059376193
C         4.27276073475129    3.04849035292103    9.40129493034030
C         2.92382754507243    2.82167507429568    9.16929207005814
H         2.63135292322014    1.99390918105867    8.54158767611781
C         1.99787561158067    3.67252141902188    9.75620451678124
H         0.94035835612450    3.52066894783842    9.59465572627826
C         2.43931397724991    4.71664134692463   10.55506196812367
H         1.75728277705035    5.40084522203506   11.03256963302893
C         5.42243687720435    2.27330516057890    8.84143726276857
O         5.27135119213117    1.35374257497746    8.03324171308333
N         6.57231558688163    2.74880143120835    9.32329922911990
C         7.78379546671490    2.23129317197053    8.72311227826370
H         8.29729005164081    3.04183565031920    8.18893165434460
H         7.47537910886377    1.47451729258234    7.98543062089835
C         8.73404676789771    1.59988810594353    9.70007966174287
C        10.08286072199836    1.91261812490925    9.68088856682147
H        10.44798317065068    2.66213419156792    8.99223671076172
C        10.98283570432692    1.27456668727580   10.51966977330669
H        12.02695757645332    1.54457259950761   10.46901150693851
C        10.53303074599114    0.30205737128644   11.40157501739512
C         9.16971409570918    0.01108451053455   11.45527732463592
H         8.83023962748061   -0.72937597082587   12.16217818941312
C         8.28758837916478    0.64833425603437   10.61211098488422
H         7.23744791639314    0.40239053640921   10.64243402267360
O        11.33476498281025   -0.43470589509208   12.22982837185897
C        12.73121268926288   -0.27028533320449   12.14276596062087
H        13.01588213816865    0.74034541387326   12.46735021753502
H        13.06779800819877   -0.40747218483823   11.10444393777186
C        13.38075680130439   -1.32554440244926   13.03662624202804
H        14.46532579739113   -1.27422900626523   12.91869041529490
H        13.04271381610157   -2.30484139708076   12.69354725066851
C        12.99083030772932   -1.14251653635960   14.50341279577815
H        11.92063941997154   -0.94158702644076   14.53454706669013
H        13.16971517051538   -2.07326783750568   15.04641878343878
C        13.75639485885795   -0.01079282323082   15.19024757446615
H        13.88925524973219    0.82262398647354   14.49810779543200
H        14.75277427245632   -0.36831794791665   15.46430395591819
C        13.02940132610909    0.50360849414098   16.43386696058708
H        13.73065600261808    1.05979004652678   17.06199964677529
H        12.66765240341744   -0.34600953303832   17.01794427935865
C        11.85899866432572    1.41703650045871   16.07430349872241
H        12.24549912299704    2.30600654694236   15.56905109894086
H        11.18773360042437    0.91190856818365   15.37852031440992
C        11.06078321607639    1.84888775735472   17.30047016779598
H        11.72708938478560    2.34592991176933   18.01206305230246
H        10.65013783355616    0.96537771665174   17.79595886833799
C         9.92626322298380    2.79457364963609   16.92015214177720
H        10.34037189379251    3.66334807096930   16.40493084128460
H         9.24277266888116    2.29745911995456   16.22807704302007
C         9.15027833004818    3.28639556591056   18.13966865680618
H         9.82914252257779    3.79949434034044   18.82475830144521
H         8.69740803862964    2.44495130651898   18.66812009954273
C         8.04519363334824    4.25425984121854   17.71949774691879
H         7.36876026087691    3.74558357328534   17.02479736608874
H         7.47299835771745    4.58788445329000   18.59760992912570
O         8.64047028783616    5.37764100867578   17.09271055962454
C         8.09881097647332    5.78413497645571   15.90143950125173
C         8.97374267566753    6.21799183434800   14.91132827135179
H        10.03266354864980    6.23002452006890   15.12138007241341
C         8.48975062041668    6.59701564310796   13.67477809116886
H         9.18037241069755    6.90913092706418   12.90359534115611
C         7.12920744583947    6.56248738787836   13.40580667465499
C         6.25606094932865    6.20578771961496   14.42417190666332
H         5.19478616678313    6.24051326690902   14.23052330223993
C         6.72979105024306    5.81030431551265   15.65977088038039
H         6.03689944920388    5.52065303625953   16.43699329976827
C         6.17117675380907    5.71078239708951    7.90221451063731
H         5.74471330305683    4.80979291293835    7.44359052488826
H         6.86673282028564    6.17282432537090    7.18545957242592
N         6.94469646369371    5.33757143015453    9.06767963023354
C         8.22887728672000    5.69671417302437    9.08001248457819
O         8.82684534279421    6.37556734517382    8.24116345618808
C         8.90615696929021    5.12574061272101   10.28559373782012
N         8.08384889993010    4.37759437271604   11.01250178400405
C         8.49488420152132    3.77694662198212   12.12385005896269
C         9.81242049176100    3.87643584970852   12.54511164124484
H        10.11288433106010    3.36116539094537   13.44349153450511
C        10.69405670068874    4.63297030595418   11.78759123061943
H        11.72895964592546    4.72589739707943   12.08535736825955
C        10.23799778917594    5.27557372671768   10.64456896355453
H        10.88384382743616    5.87974599633081   10.02582567123940
C         7.42644087380897    2.94940880929493   12.75100255064107
O         7.61671041380289    2.27805820972893   13.76807524409882
N         6.30935645869948    3.01764846825838   12.02288286685626
C         5.29083930382660    2.03845355250565   12.34129564515612
H         5.76248570185379    1.29353851622453   13.00187191423020
H         4.97530493830600    1.53120876020016   11.42113540681421
C         4.08444399379719    2.58751212690908   13.05007631769734
C         4.24164145559096    3.53144289812007   14.05139803183535
H         5.23558553348762    3.88397518663455   14.27598963284872
C         3.15864548067739    4.01022679825004   14.76563018500150
H         3.32154923416747    4.75484713075493   15.52928217232241
C         1.88723972550219    3.51428422960829   14.50666642869543
C         1.71960251751012    2.57354073289479   13.49203487772500
H         0.72486923503687    2.20452996328203   13.29224103451154
C         2.80549020499500    2.12289836371742   12.76987024908624
H         2.65918467613526    1.39373879776159   11.98501139542450
O         0.75494573748014    3.85531683946969   15.19890516163856
C         0.80333488830302    4.98627065188911   16.03990705897233
H         1.07897380919627    5.87422900123766   15.45520270791616
H         1.55543920209916    4.84787756806230   16.83048561250155
C        -0.56216510940649    5.17415375278755   16.69870254626961
H        -0.52885341924911    6.10352186551991   17.27235721413578
H        -0.72384549674098    4.35029133129510   17.39759498169495
C        -1.73790972000780    5.20882551665701   15.72030709408831
H        -1.80816102582790    4.23661958068477   15.23162167400571
H        -2.64793537497821    5.35055336066532   16.30908686179215
C        -1.63540354255066    6.30367997709572   14.65063852268209
H        -0.97258205608426    7.09555254311725   15.00136976481925
H        -2.61991230357125    6.75255034340465   14.49253953113873
C        -1.13634183546398    5.75697563245990   13.31345607437258
H        -1.86952331033756    5.03206042487102   12.94792220189087
H        -0.19754153806497    5.22424993780904   13.45568730609754
C        -0.93962997866722    6.83824464034538   12.25297353750440
H        -0.83650558880852    6.35336947963126   11.27842955829602
H        -1.83095178007133    7.47163262835664   12.20876665689904
C         0.29284763359755    7.71021239455094   12.48637133668540
H         1.18363823244186    7.08453888556391   12.57337608724725
H         0.18905429582151    8.27027105140748   13.41831335564079
C         0.49210238484525    8.68549684572688   11.33153665996021
H        -0.33850995023506    9.39820176191047   11.29938323402729
H         0.48422365433046    8.12833160490369   10.39220641361539
C         1.81655675327504    9.43812658409051   11.42145956326256
H         1.82015857626326   10.11020422720041   12.28216842135643
H         2.62664761068241    8.71549002939664   11.54423836878518
C         2.04498436573157   10.25641944628550   10.15002364169097
H         1.20892719680554   10.94550166613076    9.98744911894796
H         2.96533687560048   10.84866476432786   10.22738993478501
O         2.05028925517391    9.44416463730325    8.99380989880962
C         3.07922040577043    8.55211234979528    8.82398769500321
C         2.78118874054443    7.40053315290162    8.10036589647053
H         1.76491529460172    7.24845472309635    7.76835759916891
C         3.76625850284702    6.47620282336649    7.81476435383066
H         3.51491397097877    5.58005202650790    7.26361614739643
C         5.07434477846611    6.68622562670083    8.22730388947899
C         5.36503602879441    7.83683975157371    8.94655478364160
H         6.38262173243051    8.01331718876831    9.26041029972822
C         4.38371256430495    8.75649148673575    9.25840112046976
H         4.64669466034427    9.63270063021074    9.83085381745693

