75
CSD_code = BOXJUU | q = 0 | S = 0 | Stoichiometry = C38H32Cl2N2Zr | MND = 12
Zr       15.44694613646455   12.39717254003878    2.80568584143561
Cl       13.86750686222974   14.06648692724674    3.22707304222957
N        13.60883999819236    9.54965945967822    2.04978002378819
C        15.67176821912502   10.64276496113142    1.09056680143155
H        16.34221398916507    9.79697759937088    1.07691594888277
C        14.29340369077096   10.61641775837655    1.45314661963483
C        13.69371164944066   11.84822861039508    1.09802597653079
H        12.63897855275457   12.08181344133935    1.13966138929178
C        14.63327874759902   13.91609970007216   -0.15158121045653
H        13.72628367257223   14.50357193225929   -0.09627453531503
C        15.74708975485901   14.38250188034601   -0.80424534857156
H        15.73049466011246   15.36074429803190   -1.26054244233888
C        16.91401095551312   13.60542752920559   -0.91036747223962
H        17.75289698170031   14.00128692204062   -1.46238059877508
C        17.00794343512546   12.36539224884718   -0.32989965672276
H        17.90468127714812   11.76988590310902   -0.42801905072200
C        15.90308158003760   11.86753213916216    0.38728913633377
C        14.68059089401859   12.63602491617652    0.43277134388933
C        13.77460962264911    8.19213871442426    1.79871120253778
C        12.89171909149823    7.47144233493757    2.55361039995915
C        12.11596340610009    8.40753851135293    3.30539177314866
C        11.08120968155493    8.26615065516682    4.22811399202320
H        10.70823422302629    7.28651930568601    4.48566490411001
C        10.54829296210699    9.40033825151576    4.79853567765180
H         9.73871912952801    9.31486812787062    5.50786899236785
C        11.04702843625342   10.66639479168659    4.48599829292986
H        10.61755987669330   11.53474622936159    4.96275442002811
C        12.07735703364994   10.83825622344135    3.58188813159856
H        12.46724122880952   11.83167333321178    3.38435780894635
C        12.58785458517252    9.69805753383718    2.96896821612933
C        14.75513249908081    7.68125600034067    0.80266885820602
H        14.43031778031839    6.70879335283571    0.44229525192165
H        15.74704924365173    7.56337883382139    1.24291575831104
H        14.82570253434513    8.35744026110769   -0.04692611943293
C        12.72832832113556    5.98950893232452    2.60142185234605
H        13.61958318856133    5.48522358462549    2.23727808401528
H        11.87966174461050    5.67734132850132    1.99161326613841
H        12.54042686387015    5.66740724687174    3.62409760650740
Cl       17.02691338869004   14.06689147876589    2.38473945841201
N        17.28520663161629    9.54967448839549    3.56162326091445
C        15.22227878690199   10.64278192107697    4.52083657373369
H        14.55185217904740    9.79698276571960    4.53453267617456
C        16.60063169220782   10.61644499130877    4.15822601011322
C        17.20031443161306   11.84827431040090    4.51330413547629
H        18.25505743318586   12.08184008548570    4.47170175126278
C        16.26077105947871   13.91611820218679    5.76298118753477
H        17.16776908884965   14.50359085942535    5.70767900448274
C        15.14697225092946   14.38250904747825    6.41567642647250
H        15.16356421316380   15.36075790665428    6.87196153000998
C        13.98002316705126   13.60546636770668    6.52172784653874
H        13.14115727892845   14.00130048417939    7.07378766550769
C        13.88606704144918   12.36545847669887    5.94119973001221
H        12.98937162154409   11.76990615130694    6.03940510620507
C        14.99093423253116   11.86758857931920    5.22403173702091
C        16.21343864541313   12.63606398576243    5.17857872515259
C        17.11944630394848    8.19215317939323    3.81271022313595
C        18.00232522278395    7.47144980023267    3.05780211900492
C        18.77807853722589    8.40754273497101    2.30601523148259
C        19.81281965157162    8.26614808876182    1.38327969074212
H        20.18578080972049    7.28651339516186    1.12571861030439
C        20.34574116875171    9.40033371211711    0.81285727420537
H        21.15530864783676    9.31485878962593    0.10351743306709
C        19.84702448342061   10.66639501898078    1.12540978113674
H        20.27650374125629   11.53474553149698    0.64866079730696
C        18.81669432748703   10.83826211038683    2.02951917622901
H        18.42683304944506   11.83168777259254    2.22707578572244
C        18.30618904269933    9.69806438257437    2.64243403685815
C        16.13893208221750    7.68127259908465    4.80876226988106
H        16.46375377979080    6.70881459226960    5.16914338766447
H        15.14701544036483    7.56338183428994    4.36851956150719
H        16.06835739151956    8.35746470069794    5.65835026947802
C        18.16571149127903    5.98951503495619    3.00998138064664
H        17.27448437062166    5.48522882950085    3.37418922556823
H        19.01442025905573    5.67734981601355    3.61973106622321
H        18.35354454696177    5.66740565526664    1.98729567705765

