57
CSD_code = BOXKOP | q = 0 | S = 0 | Stoichiometry = C28H22N2O2S2Ti | MND = 6
Ti        0.81391507997209    2.75386100887574   11.48716362406839
S        -0.71599335691219    3.46366098498143    9.69034907231622
S         2.44916952080519    2.34606792592840    9.68924134449222
N        -0.09683847711836    0.98440026491681   11.18902455890226
N         1.73276969184889    4.54318623397952   11.54247565574842
O         1.94111677475877    1.93510237324705   12.56727777225180
O        -0.37865120782474    3.38685957404977   12.62127820864264
C         2.52301616516446    0.77472110559791   12.42472517541329
C         3.82233092470094    0.56980418467882   12.94196648469597
C         4.42125643341066   -0.66509287249492   12.80086884523983
H         5.42163644344627   -0.80931492623934   13.18270591949506
C         3.76494716809367   -1.72405407827385   12.17667717773655
H         4.25753155873397   -2.67939165125568   12.08292196756252
C         2.49644284052434   -1.54744476635373   11.68114931843747
H         1.98341424488124   -2.36109150866692   11.18941132266339
C         1.85063735228527   -0.30407138852102   11.78095616354891
C         0.51972607096522   -0.15000795080170   11.28063489760565
H         0.00991550869916   -1.06735204197776   10.96890967477444
C        -1.43454750942227    1.07482844914700   10.81844621771187
C        -1.85318877870699    2.23988667883709   10.13166074977301
C        -3.19969136417477    2.35825164426608    9.76950718163765
H        -3.50235874847215    3.24707785139950    9.23756702495317
C        -4.10901567313180    1.37698822227424   10.09524285940713
H        -5.14656765785564    1.49182047959435    9.81891864364678
C        -3.70016900609064    0.24336757911380   10.79219730495162
H        -4.41835568860247   -0.51425176565394   11.06613099456829
C        -2.37438654024174    0.09200349178713   11.14182213219142
H        -2.06367533894501   -0.77230066934718   11.71299035304844
C         4.51827078174282    1.72867068446689   13.58921688324428
H         5.32362055735670    1.38801126342070   14.23483756066318
H         3.80577160080836    2.31475446909506   14.17050645438019
H         4.93719935353927    2.38403942817841   12.82326429703605
C        -0.95631336875377    4.55785895795850   12.63997307426611
C        -2.28524956911404    4.68073637339098   13.10555274168578
C        -2.88060345271963    5.92497235017050   13.13609922891341
H        -3.90284862012090    6.00892073863323   13.47565331736846
C        -2.19283584797548    7.06979335884286   12.73828848069387
H        -2.68321025169981    8.03009905682464   12.77642317084335
C        -0.89598700661599    6.97151734549912   12.29754548905215
H        -0.35784324393481    7.85314068974996   11.98095083902386
C        -0.25180986884187    5.72529200352924   12.22623169744529
C         1.10653145661443    5.64964692426227   11.78547113797336
H         1.62945005963715    6.60335855366446   11.66055512494116
C         3.08998250935903    4.50987372884344   11.23906030732161
C         3.55295814544092    3.47469846642487   10.39160906504303
C         4.91826299620449    3.41369465461141   10.09083220356729
H         5.25521118810965    2.62593156776345    9.43473562424780
C         5.80237775559036    4.32277089690765   10.62726504086955
H         6.85430702000638    4.25231226871040   10.39375413891932
C         5.34885976353770    5.32465167045047   11.48080842686760
H         6.04640192120308    6.02250994562027   11.91811553371357
C         4.00468035312149    5.42051113125254   11.77553634508132
H         3.65742031624675    6.17776162439665   12.46530762852252
C        -3.01293588052253    3.43416663909535   13.50899484369916
H        -3.85760163829152    3.66740018729451   14.15209864364554
H        -2.33373542094367    2.75684930493302   14.02764283338170
H        -3.38131803978000    2.91614128291955   12.62154922210706

