111
CSD_code = BOXKAC | q = 0 | S = 0 | Stoichiometry = C46H45BF15P3Pd | MND = 4
Pd       -2.83922515696524   25.74080900224542   12.01497601925490
C        -4.59225044448726   24.84756027442555   12.64103487641595
P        -2.27357306532178   23.56611698504970   11.63362234967778
P        -4.07024750961660   27.63294138285082   12.40546629039745
P        -0.71973872101458   26.77135423450665   11.48886822531971
C        -4.90976072020852   23.59588795323302   12.19396066487783
C        -3.86302401505927   22.71168198663867   11.71984974861870
C        -4.06702860750590   21.40927342030552   11.46389230641966
H        -3.23646862364673   20.76226852542347   11.23145112736018
C        -5.40072919085709   20.78085117778330   11.50951635632309
H        -5.60564660896379   20.31739115909645   10.54357163718566
C        -6.46499174548912   21.76871174301287   11.77504318168354
H        -7.48192071518869   21.41823410364280   11.67430469701907
C        -6.24463932336346   23.04032244294030   12.12966467173775
H        -7.07618920970934   23.70756977473794   12.30327138074658
C        -5.52821621981564   25.63055067229992   13.41592112606738
C        -7.41758428527342   25.84666256666641   14.90426492804013
H        -8.13141803063823   25.38926988827867   15.57240524634435
C        -7.47282263904562   27.21490589193878   14.66728239680659
H        -8.24531879300663   27.81532030417531   15.12342827955009
C        -6.50944360977600   27.81175012581158   13.87401645102143
H        -6.53906507454668   28.87819924429249   13.70360941591295
C        -5.51413365111913   27.03238684212263   13.30182235346762
C        -6.47057067233039   25.05866795671190   14.28557710033199
H        -6.44815530859733   23.99923239656164   14.48242669761705
C         0.57716935465791   25.98650374420632   10.44210947886333
H         0.21625373498133   25.89309168672622    9.41902999219723
H         0.83561958695482   25.00130139012582   10.82053403363117
H         1.46838076582287   26.61329480961582   10.44603136765661
C         0.22657387468366   26.95614751747139   13.05744150109463
H         1.25177727948009   27.25411835317702   12.84044508571468
H         0.23485033497554   26.01443786321381   13.60495909241095
H        -0.24151788281799   27.71297437349832   13.68355637153296
C        -0.50910276271837   28.47527823157179   10.81796145880764
H         0.52811924125809   28.78476646969735   10.94080997628975
H        -1.15553106502907   29.18468856016841   11.32648049977915
H        -0.75461384095318   28.47801334349370    9.75739743557961
C        -7.51212779572997   18.58522705793684   14.02527103289478
C        -1.69323470201441   23.33113575928140    9.88231816255657
H        -0.67141291393472   23.72283451629069    9.84028008532428
C        -1.21709306470653   22.66426247050556   12.86123888420681
H        -1.51172025012318   21.60920244500427   12.84192149910135
C        -2.61467751248971   24.23589404482059    9.05874065133476
H        -2.29529080872009   24.27754904569126    8.01891094061026
H        -2.61646599841189   25.26246006106085    9.46686661915160
H        -3.63487288444244   23.85044659866725    9.09030604923447
C        -1.68431174441684   21.90240285892215    9.35391748472497
H        -2.69455882362656   21.52479931057237    9.22555221284537
H        -1.14174627115373   21.23599516776532   10.02146840552891
H        -1.19214935660498   21.87994913730515    8.38254289242330
C        -1.62239552093562   23.29809798716980   14.19396805158505
H        -1.42098822534410   24.37851148274217   14.17004970216938
H        -1.07343026003876   22.86250236372549   15.02585423922327
H        -2.69218194272738   23.16422633192525   14.36626577486521
C         0.28118961052123   22.77901851440756   12.61891690830164
H         0.55720862744904   22.37224695477248   11.64796294260889
H         0.81790780691409   22.22109471518181   13.38421679295996
H         0.60034596440618   23.81907637946126   12.67328020397862
C        -4.84246583647398   28.58684369120270   11.01553546314549
H        -5.62179770007440   29.23530115655798   11.43268496979825
C        -3.21039342282544   28.73170908885962   13.63958067173685
H        -2.27533747370161   29.04375153149090   13.15452671681622
C        -3.84499177457209   29.41064030589008   10.21530513012735
H        -3.09682217256484   28.75331495560253    9.77516124539975
H        -3.34766273740059   30.15164191066619   10.83872936354346
H        -4.35478446938181   29.93438550259592    9.40840761561527
C        -5.47438118405428   27.49756013506860   10.14580593534169
H        -5.85855010148283   27.91196761017761    9.21608427715156
H        -6.29280468628879   27.00795718863852   10.67226243697984
H        -4.72212199117289   26.73304848840479    9.90446854767468
C        -2.87619262567504   27.79184359825973   14.80181096473369
H        -2.49558215895506   26.82809023199658   14.42015690107371
H        -3.77229476570855   27.58393575869106   15.38472306666577
H        -2.13100629673963   28.22864625285012   15.46436542894130
C        -3.95519459232109   29.97664390096416   14.10143940212361
H        -4.30955153345475   30.56420533235022   13.25640837834360
H        -3.28785491756326   30.60213484393340   14.69276559404637
H        -4.80177659560809   29.71045589957638   14.72759223606605
C        -4.57247548521699   18.16481257058561   12.04249690862208
C        -4.47936324277041   17.05700574777392   12.88708223830316
F        -4.99624917055613   17.12316672658487   14.12357625655339
C        -3.86392972363483   15.86210101021621   12.53862921046431
F        -3.81707572613351   14.84538865434430   13.40907021269148
C        -3.29618193831106   15.72334826284889   11.27877999582467
F        -2.69559880518689   14.58349787234229   10.91827572749939
C        -3.36380544004934   16.79689204034412   10.40563260108054
F        -2.81676988514315   16.70516271545360    9.18392032469089
C        -3.99274477958055   17.97764994249566   10.79260958405862
F        -3.98948886779493   18.95373236937446    9.86487212743662
B        -5.40369105943921   19.47161272048297   12.59476350503281
C        -6.92227390143979   18.89030323163780   12.79995430008565
C        -7.69758183244176   18.56100029750785   11.68937146171697
F        -7.20193273285078   18.73715046191257   10.44946282968920
C        -8.97982532364701   18.03235379950743   11.76650778373502
F        -9.66600751700680   17.75786942269292   10.64710613447274
C        -9.54639261386991   17.78563239078183   13.00934759477039
F       -10.78323730513041   17.28469804215334   13.10883296189744
C        -8.79501710517890   18.05643155114036   14.14363763196538
F        -6.85502646658063   18.77245963856666   15.17753504297490
C        -4.74021548355223   20.08743447769880   13.94692832380174
C        -5.43580028415560   20.96500891323401   14.77733055336840
F        -6.71539154099579   21.27504009940290   14.51409897925749
C        -4.87746736803555   21.56716495776925   15.89774432542163
F        -5.60290291577170   22.41416987705871   16.64316741740295
C        -3.55583377449346   21.30977054030089   16.23429875727918
F        -2.99109245534527   21.89361960300788   17.30073027847790
C        -2.81620777330991   20.46917893854334   15.41596895790605
F        -1.51793434462629   20.24664926669465   15.68321740912694
C        -3.40793496831366   19.89547138617401   14.29745711939285
F        -2.59447430437248   19.15295632610354   13.51684317345267
F        -9.30611944284966   17.80351916047311   15.35518256909006

