74
CSD_code = BOXKIJ | q = 0 | S = 0 | Stoichiometry = C39H31Br2NZr | MND = 12
Zr       -5.22471686300077    5.09078888014087    5.10664412055624
Br       -2.89920775386506    4.03988087730313    5.39572261281094
Br       -4.04972016889829    6.99892297768826    3.85027987159330
N        -8.59561280177168    5.16591149802638    4.12650424728399
C        -6.86111826352603    3.37801630031491    4.42472179093140
H        -7.41482566731645    2.72413040515510    5.08214741295763
C        -7.36280633316612    4.57096719264762    3.83048570954917
C        -6.44027538706517    5.03482618187612    2.86670758690538
H        -6.59492636741425    5.84367010038957    2.16630106966781
C        -4.25211314832558    3.99277510853813    1.94956011562324
H        -4.02229475212934    4.79576910470024    1.26225283198955
C        -3.46694339398086    2.86816153737833    2.01772441682221
H        -2.59482532603884    2.78579652520155    1.38831536042390
C        -3.78327212409054    1.80511859722955    2.88041186449084
H        -3.15558524240166    0.92784382931857    2.87795892293470
C        -4.86396620471582    1.86342438543291    3.72518212012871
H        -5.10169530820752    1.03235100766854    4.37480151425404
C        -5.67356616535834    3.01559752949177    3.71452864396311
C        -5.38889081037765    4.07363361585321    2.77527181659786
C        -8.84351317505523    6.53131563162381    4.16516645883387
C        -7.99066395146912    7.60272893437666    3.92364556614165
H        -6.95373262480019    7.47480454069770    3.64107288636469
C        -8.50259396688873    8.88014588895035    4.06477160316141
H        -7.85888086776180    9.72400619341763    3.86694788141408
C        -9.82026178877867    9.10181272108608    4.45656342669707
H       -10.18034979021590   10.11452430716218    4.55390401573792
C       -10.66204363077150    8.04306847287200    4.73205858579301
H       -11.67851628628367    8.20910850540846    5.05449166749804
C       -10.17473307468970    6.75069640326364    4.58936290030082
C       -10.75430075024607    5.45540762598435    4.81083384597237
C       -12.01017279495075    5.04419139764607    5.23683742551298
H       -12.76721642126400    5.77267394840749    5.48460863484988
C       -12.26574324341105    3.69148938598473    5.32929687734054
H       -13.23330914172490    3.34877952392530    5.66402042177519
C       -11.29634783655234    2.75931004952735    4.97009241566024
H       -11.53098845654872    1.70647480050595    5.01593480611846
C       -10.04002559003321    3.14649196611137    4.54583841124643
H        -9.32356750210143    2.40356193615908    4.23621402529703
C        -9.75724463412828    4.50395429873367    4.49751405630183
C        -6.88713151185156    6.03533335619281    6.62148242723635
H        -7.89414299900975    6.32643036839693    6.37009196295509
C        -6.50821193929328    4.81588634762906    7.26298773691414
C        -5.13833471583435    4.91982634030579    7.61972912046820
H        -4.57483125690357    4.22365756807229    8.22504705362267
C        -3.45998021739093    6.89553228941557    7.50688593490114
H        -2.61738790274039    6.35979178814334    7.92360212623305
C        -3.36970917085336    8.22844375347800    7.19189243807407
H        -2.43967415765077    8.75274219864675    7.34717964578375
C        -4.47125390806716    8.94047308143382    6.68275449266973
H        -4.35969054818766    9.99426351886399    6.48035356323384
C        -5.67119348424172    8.32398091539551    6.43281999413544
H        -6.51511228713685    8.87820393803859    6.04498445898778
C        -5.79563706655027    6.94895350275239    6.71351808849399
C        -4.68846222345018    6.23643239853855    7.30528518475225
C        -7.43554930134136    3.70901851976579    7.57421314310104
C        -7.03163650825824    2.36218089086082    7.48506537817192
C        -7.96528468241590    1.35042181364952    7.65765933630673
H        -7.64296232164211    0.32262354963491    7.56560277449639
C        -9.29574564032452    1.61828550779596    7.93627522676430
C        -9.66279616891602    2.94178561926889    8.11166663132589
H       -10.68310712082762    3.17488586426022    8.38010160236835
C        -8.76161757137037    3.98422139695004    7.95785988103976
C        -5.61338053786017    1.94742367395753    7.20878236336323
H        -5.59183116778191    0.91935277485223    6.85247740851591
H        -5.03122864126002    1.97711676298001    8.13046709534270
H        -5.11508231002140    2.58178131747284    6.46956633184000
C       -10.29593324137024    0.51649533466659    8.09562435511408
H        -9.95922472999691   -0.39099122743234    7.60005018443673
H       -11.25839411492115    0.81231554712525    7.68371100084592
H       -10.43882670949966    0.29298781545869    9.15328972387728
C        -9.26389235258540    5.36199947906676    8.28417550427057
H        -9.98604327769346    5.29330484922161    9.09571380861983
H        -9.78129065509124    5.80514135774362    7.43262584013798
H        -8.45975194833674    6.02286560119328    8.59676024009133

