42
CSD_code = BOXMEH | q = 1 | S = 0 | Stoichiometry = C16H16ClN8Pd(1+) | MND = 4
Pd        5.22927945218749    3.80913186167229    7.32508631886765
Cl        6.48752047381597    1.94986294494585    7.26691126842865
N         3.05699163336547    6.15709561306513    7.25179193477749
N         5.14560114459359    6.60065705660337    7.03764072503221
N         3.08700832137492    1.79405588675206    6.72800515693977
N         3.57689339638216    1.93057907280461    8.82017150514795
N         6.84096496040835    5.05403073804436    7.04304671503357
N         7.33314952635519    7.35711637705388    6.79133930126337
N         5.03380443671618    3.36987961587358    9.92180140273665
N         4.04129203696966    1.53436726367836   11.04537098864040
C         4.25877555515730    5.57690744238699    7.21209483166513
C         3.79446126320741    2.50366363653866    7.60761505798059
C         1.80027989417870    5.47964089637006    7.42082536393383
H         1.99574557264380    4.42890006604127    7.63777801532758
H         1.20147838078151    5.56048603868683    6.51211168805695
H         1.24389416274434    5.92349156656761    8.24699287849467
C         3.17647619148701    7.52214218490344    7.10345986009566
H         2.32390710194484    8.16953110613096    7.10430214802104
C         4.48949073334245    7.80740875234055    6.96838805940648
H         5.01247060126478    8.73056572237183    6.83251667920783
C         6.50357391301275    6.34915540535852    6.95170859356729
C         8.13808025751100    4.76276079918376    6.96848497015969
H         8.40317563842192    3.71288732924055    7.04023163453968
C         9.08608042649824    5.76237613166608    6.80056012474007
H        10.13454819186795    5.52719702977172    6.73857880974779
C         8.62383765293986    7.06909895875408    6.71357503594442
H         9.28404885362673    7.91362508713400    6.57928072452785
C         3.09614173204888    2.02452796915110    5.30676193660340
H         3.78734560225047    2.85499592796395    5.09784983792177
H         2.09543146808414    2.27218284741661    4.95006630030586
H         3.44796597789929    1.13273822641116    4.78705873153508
C         2.41600511499866    0.77715320967832    7.37030769985877
H         1.79024256475315    0.08588805020361    6.84432777269778
C         2.72259236692426    0.85688665827773    8.68260214501968
H         2.43215322528916    0.26232220432183    9.52301350041751
C         4.24489766295932    2.29434567289782    9.98625285288860
C         5.71707483178394    3.65714039675077   11.02395845243577
H         6.36081803172344    4.52585353604517   10.97138213366152
C         5.61080237092653    2.89577615071064   12.17922550155667
H         6.18098320343242    3.12734642599051   13.06211741463171
C         4.72234289936683    1.82977520852065   12.13978653248576
H         4.54317317474710    1.18965293176943   12.99201939569288

