89
CSD_code = BOXPAG | q = 0 | S = 0 | Stoichiometry = C40H40N6NiO2 | MND = 4
Ni        1.46847786496607    4.58343121019143    7.09803350997547
O         5.21444343244957    6.05858785328860    7.88867326382280
O         1.33425281970888    3.29109393634398    8.50012171706943
N         1.27996550445349    5.90729005501233    4.42552124139553
N         2.54172459429026    6.89626404583853    5.85171181274135
N         3.31028231139725    4.82346849119184    7.59942693756053
N        -1.46992785990034    5.05810573793581    6.86896660536325
N        -0.90718094446130    2.98735616941140    6.97589423352447
N         0.88421403062548    1.16797004480941    9.27293733597736
C         1.71601455162239    5.84436776407045    5.70977965689296
C         2.63645765267549    7.60194519411524    4.68981907930263
H         3.24981488682088    8.47383327524621    4.59313136661366
C         1.84319743655493    6.97797120696933    3.78674322546846
H         1.63792709231949    7.20891574053680    2.76131261364223
C         0.40346109718437    4.97032523076602    3.76474706805417
H         0.04351265356827    5.44380799287219    2.84426386690599
H        -0.45555716279916    4.76258282584647    4.40789692303389
C         1.09119797848635    3.66847977479238    3.42603861240701
C         0.45211276688015    2.46043029999571    3.66653723325869
H        -0.53713540360053    2.45588017285596    4.10236957690294
C         1.06879404007947    1.26494791412714    3.34061612902284
H         0.56506663701752    0.32983710251663    3.53580272049195
C         2.32909968184388    1.26870471489508    2.76853832110809
H         2.81157358721642    0.33648549253058    2.51672652286282
C         2.96950627626366    2.47109862826581    2.52141090242813
H         3.95260112357304    2.47886841250651    2.07569931253351
C         2.35350546100803    3.66576392042526    2.84743214824501
H         2.86058647020612    4.60073028631895    2.65692012325874
C         3.28391173871466    7.18204182795915    7.04300482199957
H         2.61313493047619    7.51637911713585    7.83831352971342
H         4.01832526120780    7.96259416139034    6.83860942392056
C         4.04121152608542    5.92525087829007    7.56412984051978
C         3.93327620265559    3.66536582162406    8.12765066855185
C         4.29627088171882    3.60479083746757    9.47784433867358
C         3.99749369385020    4.74483929459038   10.39863009843472
H         4.75235372503987    5.52296494920391   10.28007273461043
H         3.99028810032973    4.40785929122969   11.43247386444529
H         3.02941260704834    5.17754724650315   10.15047224221588
C         4.93366514032583    2.46740806051656    9.94879701342527
H         5.21171066451880    2.41427736789167   10.99139095871907
C         5.20188297378610    1.40130665797354    9.11252621781811
H         5.70005991187730    0.52354341147453    9.49682439838394
C         4.80687050460599    1.45157175617862    7.78746753578632
H         4.99803433495393    0.61262921869886    7.13090720828901
C         4.16803164990768    2.57235328634590    7.28586823772480
C         3.70370629090457    2.62881193938068    5.86027306306379
H         3.68412183316247    1.63784073381137    5.41177198815317
H         4.35828900639802    3.26894903941494    5.26753650938992
H         2.68769211410649    3.05966229599940    5.81731556312378
C        -0.39597996765949    4.22812539670551    6.84903589689400
C        -2.62445733202652    4.33726923939365    7.01248063902408
H        -3.58954654264129    4.79877248487906    7.05619942916120
C        -2.26733411393758    3.03253826266742    7.08389684104667
H        -2.86263445327029    2.15114908020040    7.20383945097383
C        -1.41312444001187    6.49576802720598    6.80649523834583
H        -2.42721049288156    6.87689608316549    6.97328462017713
H        -1.09963629488570    6.81112586090030    5.80317796215470
C        -0.48218261888766    7.11329525309618    7.82802627687090
C        -0.08375806841920    6.43575096190030    8.97566692367530
H        -0.43629808381256    5.43500048819340    9.18085358870276
C         0.71549745478325    7.07041645645851    9.91538854541966
H         1.01306729440999    6.53933597644335   10.80642320951178
C         1.11686557360686    8.38050945361172    9.72261524287538
H         1.73744422947263    8.87145638693650   10.45663119081941
C         0.71834298878612    9.06059128170683    8.58197981190243
H         1.02594465919242   10.08392040186805    8.42562872121760
C        -0.07134848078465    8.42817959981551    7.63863285937127
H        -0.37953840211964    8.96109203589169    6.74955074887277
C        -0.08803409195098    1.83374870640487    7.21212122614772
H         0.57627121197261    1.65773188548662    6.35954202185491
H        -0.70395344328309    0.95513229807490    7.39450233154611
C         0.79769088455366    2.13846130992154    8.45126024312308
C         1.64306752781255    1.14738288278101   10.43336735880302
C         1.49263313182742    2.07246746227196   11.47424335841091
C         0.52527058320551    3.21015210431397   11.35155403917328
H         0.41348176839073    3.72969270047392   12.30144497148733
H        -0.45171749381918    2.84683898698184   11.02867619752163
H         0.88499370311971    3.91254763874313   10.59971034756186
C         2.24725369843573    1.91626437504468   12.62687723601664
H         2.13957629382674    2.63657150909755   13.42767809488100
C         3.12816684124389    0.86139028621506   12.76898065862358
H         3.71220114539860    0.75852672255055   13.67273385537833
C         3.24753135060802   -0.06978304196597   11.75146464554312
H         3.92439355311788   -0.90600733183633   11.86371308302356
C         2.50914232209352    0.05423877963398   10.58995304194498
C         2.62248712445000   -0.94701155892336    9.48106040259595
H         1.63233009449702   -1.30976678623507    9.20953654784867
H         3.24848955857724   -1.78601644569092    9.77620259506027
H         3.05267965490237   -0.47498590114300    8.59871822959754

