116
CSD_code = BOXPIO | q = 0 | S = 0 | Stoichiometry = C48H58N6NiO3 | MND = 4
Ni        9.34526945093417    5.56590245085984    3.14736569882412
O         9.17514026502860    5.55875337379498    1.26511224495405
O         7.08749444744570    2.36518648416434    4.35310445562705
O        13.17733165296982    6.93479846911038   -0.52447152561542
N         8.50953920227414    5.08314672683695    5.79945443904994
N        10.53902774657556    5.77240121452105    5.88211351812120
N         8.44848947045713    3.84812696830646    3.26384000053464
N         9.60975729911915    8.48433155097980    3.11929772557108
N        11.27643007523332    7.52970279090200    2.16826924357548
N        11.01187907718208    6.22010320277307   -0.39080999630957
C         9.51399668646834    5.54132276600083    5.03041683355421
C         8.89049525492054    5.01924477379987    7.10777817064171
H         8.23984583354083    4.66588730858271    7.88072563614958
C        10.16971993267156    5.46195997114733    7.16291902348528
H        10.83601731593008    5.56906744790779    7.99403352413085
C        11.83203374568894    6.29314972046943    5.52624232017484
H        12.10378313302136    5.90456714042492    4.54024403438364
H        12.56336478366246    5.92085101991354    6.25297290504200
C        11.88675084232988    7.80485526052066    5.49851837348448
C        10.93548900965432    8.58710169192741    6.13637484687719
H        10.11945945641244    8.12371554655480    6.67170513068112
C        11.02332653320275    9.96850892318914    6.09655535308728
H        10.27598358874748   10.56531668863644    6.59875163812403
C        12.06657015959240   10.58199424095997    5.42682275521157
H        12.13534164277614   11.65879995627432    5.39863305459684
C        13.02654344653363    9.80696076319169    4.79791731103075
H        13.84658569408359   10.27761766282312    4.27748825291429
C        12.93557589748530    8.42818535197840    4.83317453988819
H        13.68853791081453    7.82636130561651    4.34564569806754
C         7.28251430861396    4.57734640216926    5.25670031720753
H         6.71749625213980    5.37875673815449    4.76887219073300
H         6.67755841500477    4.13743505547093    6.05024672498262
C         7.60303202179847    3.46619685249495    4.20900467884626
C         8.75941934834598    2.88269547278148    2.27117567334637
C        10.04846757988167    2.32623138943609    2.22589871194089
C        11.09436337903301    2.80908565652004    3.20494502576628
H        10.88579717860437    3.88445621530356    3.38916645684769
C        10.94786464611872    2.06211465372786    4.53300055764103
H         9.92957729489809    2.14059911331601    4.90575011695520
H        11.62929553762951    2.46505340339085    5.28180730079510
H        11.17271421831948    1.00696659000583    4.39118371195844
C        12.52565733305207    2.69913184023745    2.68236500666651
H        12.84951761336210    1.66172892048703    2.64613554273952
H        13.20634792241459    3.23329759432723    3.34445965324369
H        12.60992833640001    3.12389947279951    1.68390831355253
C        10.32693616619923    1.34453393792504    1.29005835257144
H        11.30601271655013    0.89267541302202    1.25703569487783
C         9.35731645368889    0.92088019851159    0.40001900713862
H         9.57986486783363    0.13865265950099   -0.31100953694709
C         8.10872372315637    1.50845637464164    0.41411315917116
H         7.36456057973366    1.18348649102509   -0.29767790717114
C         7.79065753761300    2.50060406884773    1.33088881710575
C         6.42380665159321    3.14608425818520    1.29038641824143
H         6.40191253621245    3.96647795715709    2.01549672410612
C         6.12685127347520    3.73633852895871   -0.09151824714169
H         6.86171732760091    4.49421900894300   -0.35898657950811
H         5.14034510054331    4.19750882910020   -0.09243673528874
H         6.13608684964269    2.96692597037604   -0.85922816847785
C         5.35167113551202    2.13397012952233    1.69688757829441
H         4.37271432361440    2.60941317713104    1.72698359530994
H         5.58206055433512    1.74094561514148    2.68394032268850
H         5.31430078251105    1.30712126848136    0.99153829819097
C        10.16562248666757    7.27732438858394    2.88517163571437
C        10.35607681875312    9.47319183307676    2.54214858159509
H        10.08608443272518   10.50668415079630    2.60542721827774
C        11.40964560868177    8.87135432717415    1.94456484272081
H        12.22973454079660    9.27471761936613    1.38715194403931
C         8.38538546537938    8.72405256669798    3.84838338855044
H         8.46155768477681    9.69883888719778    4.33721194136395
H         8.29376314556954    7.94305429568157    4.61098526752679
C         7.18681306896774    8.67675952310089    2.93177824379378
C         6.51552732407551    9.83237555307239    2.56094964746758
H         6.83370204902058   10.79034767455107    2.94870256435788
C         5.43582901483060    9.76161848309302    1.69664561380565
H         4.91705717798650   10.66506626857728    1.41196313405013
C         5.02674595186879    8.53843480532191    1.19491374783972
H         4.18760514197577    8.48681545832865    0.51750995596193
C         5.69666975196585    7.38178220222670    1.55936248901256
H         5.38581087601490    6.42683002996130    1.16569059417582
C         6.76933091198769    7.45306193331508    2.42710613670154
H         7.31887878703639    6.54959451831625    2.70182012052857
C        12.19739729158782    6.55525548372825    1.64824903180168
H        11.88433704146242    5.56438199342861    1.99001589401535
H        13.21318730865842    6.77642125147220    1.98784150502078
C        12.19014507830571    6.58635054012006    0.09568127908837
C        10.67742346295887    6.21475643641421   -1.76731346695573
C        10.04684040897662    7.33745836416978   -2.31318482912329
C         9.75633002843223    8.52775114944870   -1.42673335000485
H        10.57768132510731    8.61453728721334   -0.70700407042498
C         8.45938555521288    8.28544536369296   -0.64637265071479
H         7.62993392962529    8.13431196973479   -1.33424607444457
H         8.23059502371471    9.14408298019844   -0.01693812621854
H         8.54255278114215    7.40767988099809   -0.01020526154892
C         9.67474770596857    9.84789072467872   -2.19085677968549
H        10.54333491612960    9.97342975738900   -2.83316134718250
H         9.64441091911718   10.67696208167286   -1.48588785867786
H         8.77515523584480    9.89546686608453   -2.79992270850889
C         9.68493073093245    7.30183566259189   -3.65106895326488
H         9.19127927045695    8.14850726485386   -4.10130974801489
C         9.95730686489328    6.18963507420427   -4.42687630071635
H         9.68077535000267    6.18341593997077   -5.47145912661655
C        10.57862303203522    5.08763936032352   -3.87257027934807
H        10.78503809204395    4.22866171698535   -4.49197949040479
C        10.93496246457274    5.07531696275524   -2.53130519422071
C        11.61547555211440    3.88111345842820   -1.90494372930601
H        11.48848072848214    3.94960066966559   -0.81897124238713
C        11.00753611067236    2.55345683180856   -2.35497086732615
H         9.92993534391947    2.55950903170361   -2.20697172797911
H        11.42812293385474    1.74125631832806   -1.76644463544906
H        11.21753948395503    2.35432910184135   -3.40272943487947
C        13.11347203211998    3.93222006690406   -2.21912050000603
H        13.27641701034222    3.86019787941661   -3.29240963331188
H        13.63218407027979    3.10848028331384   -1.73241743842758
H        13.53783991077476    4.87047387849730   -1.86974814406911
H        10.23069875956229    5.94327216346808    0.29624049458231
H         8.76831448745335    4.76008165679349    0.91740171527965

