46
CSD_code = BOXTUD | q = 0 | S = 0 | Stoichiometry = C21H18FeN2O4 | MND = 6
Fe        0.54813487066943    1.42451279523589    3.97703111885807
O         0.84058715356611   -0.35829198409996    3.49293267082307
O        -0.14014011281256    1.91376738740839    2.17406131380304
O        -1.32434488577977    1.04732436126983    4.38291389179310
O         1.07226911084086    1.29683126354302    5.69580024234134
N         2.33424162520372    1.97514765210569    3.52095524394367
N         0.25383687015423    3.46860951518307    4.11336783120472
C         1.94194134347069   -0.90322620630403    3.11690205655276
C         1.94842181558777   -2.29793962125804    2.85383963655266
C         3.08284395059506   -2.95550992016659    2.45885622080846
C         4.28608734435849   -2.26376706944244    2.29705656811451
C         4.32079660518416   -0.91401187947294    2.53811011705669
C         3.17814588667769   -0.20348815358624    2.94566527182140
C         3.29267788376322    1.19932013850528    3.16072090379962
C         2.57962750051939    3.39570586263050    3.63551037277207
C         1.50834521568164    4.01367360221953    4.54468325983596
C        -0.74063700925486    4.02341221387135    3.63577381394062
C        -1.73422164884604    3.58985088740514    2.78906578358443
C        -2.96475771138162    4.06754341758721    2.50111702284459
C        -3.86320565142241    3.59535538769404    1.60779955642185
C        -3.38593403484903    2.59203321940118    0.74927289593573
C        -2.13189615766069    2.05834585215733    0.91402654124022
C        -1.25280248234880    2.44576223720785    1.93717976498747
C        -1.76759756854126    0.68975469761750    5.53173445257910
C        -1.01743834727923    0.59336878929829    6.67420991790104
C         0.38500942927490    0.89549667487555    6.74609838542270
C        -3.24532410929444    0.36557874165382    5.58101251477103
C         1.05968729802785    0.78915133633627    7.93644368341140
H         1.01423540479811   -2.82211034460021    2.98429245963221
H         3.04818779691676   -4.01850329220115    2.26861912467907
H         5.17556311952091   -2.78853668752610    1.98411123379680
H         5.24659024293897   -0.36912065405877    2.41165620860850
H         4.28390168760102    1.62594712436247    2.98447217807542
H         3.58157437452644    3.60154986649117    4.02893507726907
H         2.49337628129017    3.84052403619681    2.63661391180875
H         1.68326707550047    3.69184488573562    5.57469524374623
H         1.52207726489310    5.10667400194108    4.48115929991127
H        -4.84579266836912    4.01786454163228    1.48255648637294
H        -4.00565563259222    2.26683239900468   -0.07317560287273
H        -1.77972265503210    1.26780630040621    0.27016825431571
H        -1.48708244205859    0.26446631858299    7.58725301582586
H        -3.61762884835437    0.37354063130616    6.60061511029230
H        -3.79219526723935    1.08741855133188    4.97861109042717
H        -3.40533410506379   -0.62047248521380    5.14839101617720
H         0.56537907068954    0.45327662268623    8.82777323147295
H         2.10980511592979    1.01158698504391    7.98821160734022

