21
CSD_code = BOXYIX | q = 0 | S = 0 | Stoichiometry = C7H9Br2NPdS | MND = 4
C        -1.20745905266999    2.92261409328350    6.66744021572393
H        -2.06863899468364    3.55431874001514    6.43158153826112
H        -1.53225307423686    2.13932696076910    7.35452342843687
C         1.00158380060257    4.11124373566258    6.42293422864406
C        -0.10486093665306    3.76030027759639    7.24429014821409
C        -0.18233280246723    4.21141931900559    8.54516503534565
H        -1.02363557111915    3.93513573706630    9.16452629082476
C         0.82197749361250    5.03488993862449    9.06779088057446
H         0.76824567741356    5.39280352698507   10.08195077410465
C         1.86895452125704    5.37837569999418    8.25501978843115
H         2.67701159869542    6.01530637280519    8.58025414329336
C         0.13699478126065    0.67078044780986    5.69803227844809
H         0.94946529282756    0.96309706608617    6.36670487890746
H         0.53735620624211    0.15870361645289    4.82368166001607
H        -0.57092864481704    0.02354619727033    6.21033579003050
Br        3.24965265907100    4.48096101775630    4.18533454043898
Br        1.32694843408028    2.12702566623144    2.53257170584597
N         1.92202450079414    4.91444615363450    6.99890778763173
H         2.71423552882929    5.16941995677535    6.38997634711626
Pd        1.20975422140180    3.30766915344834    4.59750096727240
S        -0.74969563944016    2.13511632272626    5.07937757243828

