25
CSD_code = BOXYET | q = 0 | S = 0 | Stoichiometry = C8H12Br2N2Pd | MND = 4
C        -2.73761313580997   -0.34414626861491    0.99312132211715
H        -3.73891933876912   -0.79879050929707    1.04164500624640
H        -2.71712545573835    0.32564389632045    0.12371569782014
C        -0.38732825008235   -1.08283216936709    1.30660557047954
C        -1.67322033383281   -1.38704573117966    0.78601439459146
C        -1.89083703522031   -2.55091174878174    0.08736664026104
H        -2.87198186445531   -2.78198298931113   -0.30196896365970
C        -0.82894439209606   -3.44295601412642   -0.13083911205760
H        -0.98351128031648   -4.35659625414326   -0.67968383430203
C         0.40644638753993   -3.12437079561477    0.36126499826528
H         1.27047122361453   -3.75585926278112    0.22296341835929
C        -2.95100287319262   -0.24590742560361    3.38828511704935
H        -2.68779010389684    0.32686017103937    4.28090997389617
H        -2.48970374960268   -1.23615315955720    3.45313858541768
H        -4.04258200203810   -0.36700094971610    3.35901749249383
C        -3.13729185450134    1.75483614788300    2.09417566921687
H        -4.21633035532357    1.63048315723263    1.93661958308757
H        -2.71450181792965    2.32248053692125    1.26284056643676
H        -2.97796316709000    2.32296602840037    3.01041693428609
N         0.58233262555740   -1.98611377270611    1.05360192431837
H         1.51284701415262   -1.74199870921840    1.41367038779689
N        -2.47139814675836    0.45729726703233    2.19646567775320
Br        2.08958282295982    0.28594015241293    2.66523919126430
Br       -0.36955029743305    2.29821031271465    4.02927759316573
Pd       -0.27278461973728    0.48804809006149    2.48573616569619

