55
CSD_code = BOXYOC | q = 0 | S = 0 | Stoichiometry = C17H25ClCoN5O6 | MND = 6
Co        1.76726040071408    1.12429145120566    7.60090936417629
O         4.15589358817402    2.46581986019081    8.61352626818788
O         1.71823026312062   -0.81233424484108    5.43789061966530
O        -0.41819085890552   -0.28230672215725    6.63809271955608
O         1.95769182408727    2.85546487172893    9.74776177614935
N         3.62848434695361    1.62138658011790    7.70804358733255
N         2.45538470738041    0.03675492027954    6.17980057808546
N        -0.01305890300990    0.62221495583825    7.47688916902147
N         1.15368742185794    2.18431356018296    8.99486352070837
C         4.40491628534694    1.04682862804612    6.85317527561785
C         3.72113033148209    0.13896551083432    5.95681181205717
C        -0.80190225363408    1.19768824539389    8.33104006507519
C        -0.12325748242650    2.10398110197126    9.21740279778754
C         5.88062747829048    1.26095404768913    6.78428056409160
C         4.44291060595694   -0.60350120680361    4.88205677764120
C        -2.26709348455138    0.91524588546442    8.40949726212291
C        -0.80751333165862    2.85120229142412   10.31553155822987
Cl        2.79545014185945   -3.73597033808273   11.90707234169787
N         2.08667200468937   -0.40555333140626    8.97419791816895
C         2.73033963554323   -0.18521622747266   10.11903252008826
C         2.97216145780931   -1.17549516222348   11.05341542182532
C         2.52126898963755   -2.46132380643327   10.78713973313399
C         1.83884619015989   -2.69607355355946    9.60081484404043
C         1.64684134000888   -1.63895948741312    8.73060269210933
O         2.54972059688728    4.54552041003571    6.99316981325190
O         3.33189856052526    3.30821102100601    5.29712353167157
C         1.28614243125760    2.63213537069267    6.30213886535449
C         0.86507997078688    2.18252667040204    4.90816248571882
C         2.42249435345815    3.58834695965174    6.26760854914523
C         4.42478124508232    4.20643339222570    5.22674755586729
H         3.31074681032095    2.81284940010185    9.14769537147282
H         0.73607343082911   -0.66819608535285    5.81101560806979
H         6.17405033446799    1.55174143398505    5.77802929363931
H         6.40841738146300    0.34332764966071    7.04246282891325
H         6.16602289804888    2.04090621887802    7.48562926776214
H         4.81948305561599    0.09697688834947    4.13823564022324
H         3.75849433568834   -1.29611016107154    4.39909087184496
H         5.28749860701732   -1.15340544244121    5.29215053099066
H        -2.83868443665427    1.82491669229146    8.23260089641193
H        -2.53338756771639    0.52974217422508    9.39248196406149
H        -2.52286172046651    0.17821929242564    7.65165219797802
H        -0.08901248712342    3.52536903618377   10.77608496461740
H        -1.18895268720051    2.16535227698510   11.07154397617836
H        -1.64289593323570    3.42691994207050    9.92193027378776
H         3.05862087388222    0.82689938593725   10.31544118378434
H         3.49695866529171   -0.94736040040589   11.96631954850485
H         1.46325408578663   -3.67667731065366    9.35956765342538
H         1.10558768426118   -1.79830060060744    7.80788694265216
H         0.45263339707580    3.16783251018792    6.76948939251563
H         0.50813445564161    3.04970596626299    4.34903798875692
H         1.69276092377820    1.74922672575591    4.35470820297933
H         0.05093069319158    1.46401152435101    4.95445135833951
H         4.07628620803532    5.21180502869009    4.97992661503059
H         5.08162644334900    3.83218830941078    4.44472656534244
H         4.94561669176869    4.24820789079139    6.18604087513840

