65
CSD_code = BOYBAS | q = 0 | S = 0 | Stoichiometry = C29H30FeN2O3 | MND = 5
Fe        4.37187502216140    0.16079715609102    0.08889971258140
O         1.91431516511741   -0.71104879377000   -1.26138539782374
O         6.41021194720209   -0.39646771188086   -1.94479698000552
O         4.88488559264844   -2.56283683185951    0.94175731079366
N         3.88445919006479    2.08903682425882   -0.15521773729050
N         4.68382019167862    0.85725371028254    1.92464454960144
C         2.84775209145739   -0.35107114422841   -0.69602251714189
C         5.63555701503779   -0.06801952827453   -1.15859316292487
C         4.68483303648779   -1.47999715710493    0.61003552611636
C         3.92291649535905    2.80452814632479    0.97329765546962
C         4.38405718076977    2.14277603864162    2.09397162301325
C         3.32149040684549    2.66423629714503   -1.28546364538427
C         4.13148545160687    2.71010399890754   -2.47929866782660
C         3.56543864191488    3.04570275487885   -3.76714238033503
C         2.27259516351580    3.41526571440607   -3.59074300923673
C         1.58138524089638    3.44716346551130   -2.53974813041359
C         1.90035732274100    3.05291919331070   -1.23940363190913
C         5.53370503775743    2.59825378789048   -2.43255807021007
C         6.31910084015251    2.23631565377341   -3.64966547366431
C         6.35942084167574    3.03495050890705   -1.26775649566778
C         0.93807325398079    2.91765880558685   -0.25740191701686
C        -0.44778453494632    3.38507853375205   -0.57286570771586
C         1.09161051445875    2.26689111328640    1.07486090174032
C         5.14592335451125    0.17112235079293    3.07255703592485
C         6.50852750570447   -0.09979180420252    3.24260442051985
C         6.91659081221659   -0.76798742429832    4.38909253573102
C         6.00912594346930   -1.15571086683196    5.35612058996875
C         4.66677591992014   -0.87387979154881    5.18892931607741
C         4.22172056332705   -0.21090708836329    4.05407706249519
C         7.52732072457418    0.33782989540990    2.21639448269789
C         8.29323573351141   -0.86201932264030    1.65773833300365
C         8.48499817823877    1.37113356566560    2.81410002006950
C         2.77161980345619    0.05678587661731    3.89227525261744
C         2.05041952506617   -0.58859908869767    2.98833760605862
C         2.18348502188203    1.05767021042693    4.84230202069362
H         3.63428058421692    3.84919989250430    0.97346003448527
H         4.52114624945582    2.62910451226185    3.05431028167831
H         4.14610937181232    3.10656945043082   -4.66758977548842
H         7.23806441470395    1.73396650954864   -3.35122508301120
H         5.76315661572020    1.57288400751123   -4.30703755473499
H         6.60825657745990    3.12680738905185   -4.21560357890249
H         7.26283209500412    3.52313418210620   -1.63519134021135
H         5.82005786024836    3.72890930033394   -0.62925340650538
H         6.67646334932966    2.19029184788768   -0.64996126585788
H        -1.12136384891771    2.53242136818830   -0.68388104250209
H        -0.83399857071718    4.00150675679159    0.24021989325380
H        -0.46777358578497    3.95870204035399   -1.49739636785848
H         1.69903475007095    1.36285062890718    1.01682855804750
H         1.56620366632554    2.93134279377765    1.80179057017018
H         0.11036888792382    1.99912682424013    1.46281968585701
H         7.96446946558235   -0.98485895475244    4.53118199425777
H         6.34741528102185   -1.67538633746830    6.24015745994436
H         3.94919367441019   -1.18121619489701    5.93574495105032
H         6.99391507235749    0.80914211980401    1.38210146486530
H         7.59939440268690   -1.58831981545941    1.24059074018948
H         8.96918006216464   -0.53968029727469    0.86846258699174
H         8.87955176294781   -1.35026039887636    2.43204275784307
H         7.93200001077690    2.22930072094645    3.19111020702311
H         9.18404935983099    1.71736295221416    2.05565911064133
H         9.05495741194398    0.94355537985155    3.63545476129511
H         0.99092593124805   -0.42337882565929    2.88551727448033
H         2.48982643258398   -1.31812879680754    2.32842195148839
H         2.65447622779929    2.03120190886560    4.70671024921146
H         2.36022144385900    0.75025417955827    5.87235543034257
H         1.11318084946418    1.15995780789310    4.68256642135378

