79
CSD_code = BOYFOL | q = 0 | S = 0 | Stoichiometry = C32H32Cl2N4O8Ru | MND = 6
Ru        2.75266712879837    2.06955743486859    9.18504257087323
Cl        0.52132805241943    2.65086275680849    8.76020425756234
Cl        2.23059460079385   -0.01170684705547   10.12446072968947
O         4.60282402905799    6.41371014332379   11.67857381286423
O         4.94995602991916    8.00099299309474   10.13709951037855
O         2.07308462335875    7.32561776384817   10.19826655597434
O         1.54267550970738    7.50932827281959   12.36491704109172
O         6.51408040817250   -1.40207321087090    7.39402109779511
O         6.24344513015255   -1.43561628908661    5.16869969151679
O         8.25215130783038    0.90332234530183    6.24570403645793
O         6.23535054690130    1.67599227604603    5.61586200922227
N         3.34838282428293    3.84990439293861    8.55385132528649
N         2.45200301282726    3.12813033540203   10.84370153805855
N         2.99616581682836    1.00615385032288    7.53739707730813
N         4.70297354630067    1.70238612739193    9.33572975545614
C         3.95936166887622    4.06466053179007    7.38536205650295
H         3.83183621839914    3.29989165408446    6.62927634742827
C         4.71110021184172    5.19110379932747    7.13311552419586
H         5.16495546940347    5.33406208471716    6.16590998937764
C         4.90304856606801    6.10951134559983    8.15833876672072
H         5.54502428338274    6.96556391188577    8.03081385739956
C         4.26113221770366    5.90544531704716    9.37281396308823
C         3.41395427480995    4.79829330422325    9.51817785014541
C         2.61154727498317    4.46244012053758   10.69390169328076
C         1.98211731722415    5.36305680345879   11.56818716055844
C         1.30453138519518    4.85265169418216   12.67172897480015
H         0.81222390792769    5.52990856574996   13.35050724611833
C         1.24545258204824    3.48161027502431   12.86124026384878
H         0.73466585962636    3.05795533831383   13.71046547751951
C         1.79895481737829    2.65522080076245   11.90223347380341
H         1.70846267014423    1.57517790419904   11.95228940352931
C         4.59297148999066    6.78494217443753   10.52847830074384
C         5.28461489381138    8.94289385201668   11.15849135873529
H         6.34621328073374    8.82301773368632   11.40397385566267
H         4.69862246877989    8.71163967780762   12.05445452841343
C         4.99544956615642   10.34054949909929   10.64302854306984
H         5.20832691957002   11.06863819447916   11.42040699496746
H         3.95178796923736   10.42261601709421   10.35167100756001
H         5.61225291540516   10.55556143255528    9.77492322195225
C         1.89242524184164    6.81967056130775   11.28068777991897
C         1.38033890220567    8.92191724574280   12.22703295850083
H         0.32077165727447    9.12284669224753   12.03343407617683
H         1.96055254001458    9.26011333899466   11.36195914082432
C         1.83513219290808    9.59794678147379   13.50833256486929
H         1.72289503218597   10.67406168245689   13.41215813875602
H         2.87765780886061    9.36512602728389   13.70984596919053
H         1.23698325196052    9.25182442490207   14.34672443707378
C         2.00400508014095    0.49000545945465    6.81244423496257
H         1.01428766437062    0.87398177829559    7.03463763009259
C         2.21555555329910   -0.47668215830999    5.84876335187014
H         1.38548568275784   -0.85580995096936    5.27520000388252
C         3.49570389118811   -0.98564379056318    5.67243142458664
H         3.68827021423279   -1.78947756704467    4.97948703732699
C         4.53335257310068   -0.47366606034062    6.44047054820547
C         4.25812630296587    0.57037843851424    7.33348781520676
C         5.23972660824254    1.22601902892902    8.18906799935330
C         6.59339093182077    1.42599172776719    7.89249439109885
C         7.43181088002997    1.92413742191056    8.88062970467880
H         8.48193869391035    2.05064804212450    8.67034511753868
C         6.88315749869776    2.26968866933703   10.11050779974948
H         7.50405425904047    2.63503615795448   10.91207556100501
C         5.51552329352225    2.19057024131723   10.27541123456177
H         5.04126173442624    2.52057677321399   11.19149667707310
C         5.87076370817941   -1.13505132845319    6.41190431618996
C         7.51742254415415   -2.08079357029510    5.03502559546623
H         8.28380831336461   -1.41799402113167    5.45187546768694
H         7.50427316496562   -3.00349254164509    5.62447139543992
C         7.75940452347107   -2.36014928707471    3.56463550950858
H         8.71388597571160   -2.86400943268561    3.44613000304817
H         7.77856000959254   -1.43050841854573    3.00190681381251
H         6.97175611069293   -2.99425176401272    3.16581666489201
C         7.13657505834984    1.26288631704322    6.51522038589994
C         6.59397764620600    1.63595693080339    4.23097254635197
H         7.68238316779294    1.54164993181097    4.15311425407530
H         6.12343009483013    0.74656846077463    3.79803232177034
C         6.09569360215826    2.90063684454638    3.55377906480134
H         6.32215147612575    2.85757829513478    2.49249180098013
H         6.57978018738716    3.77497775956386    3.98225622414427
H         5.02063613189572    2.99606048086370    3.68312117069520

