42
CSD_code = BOYKAD | q = 0 | S = 0 | Stoichiometry = C20H14ClFeNOS4 | MND = 6
Fe        5.46761119008247    8.94846785251144    2.06644948726723
S         4.21245870290599   10.48730185600993    0.91161041906639
S         6.74568798202835    8.63417071823430    0.26709062056794
S         6.71779599215094    7.40462540211585    3.21917524410980
S         4.34559042940578    9.44045560237596    3.92861758246809
Cl        9.59770651565423   13.56291982091002    3.75810234459527
N         6.70822424218497   10.33629431025602    2.57371337216556
O         3.60795512855476    6.86225771282308    1.30654350250375
C         4.33815530728593    7.68299832326853    1.60570162850455
C         5.14009429390261   10.73508448374950   -0.52517234807066
C         4.76934780379870   11.73463834323642   -1.43377527732773
H         3.90410252616184   12.33712685740636   -1.20454351160820
C         5.48925774748570   11.93588652194711   -2.58916838901802
H         5.18753095927188   12.71264056068294   -3.27599306338633
C         6.59468980944032   11.14465215026948   -2.88474029188377
H         7.15104592270141   11.30153093528209   -3.79555730379664
C         6.96826049722726   10.14569583003347   -2.00758953883416
H         7.81012863562931    9.50448539409101   -2.22458545794747
C         6.25909869921658    9.95787993451110   -0.83141725197177
C         8.26166154076870    9.36612859554281    1.00055599983807
H         8.74522873303989    8.52307263054947    1.49894017730858
H         8.90162108011287    9.74519578964955    0.20529589982747
C         7.91738406236968   10.41655039010601    1.99982511648919
C         8.82971996289985   11.40484581109848    2.32561733194286
H         9.78875991093834   11.44253020940252    1.83627319849983
C         8.49223423785981   12.32867671859268    3.30481958793682
C         7.24751317429652   12.23935391535096    3.91219343688331
H         6.95146616509366   12.94198053417129    4.67330925351404
C         6.37977878685096   11.23973708257373    3.50848190855175
C         5.01000064725055   11.14492687555836    4.08745877349940
H         4.31605798408663   11.75218045846528    3.50211619609426
H         4.98029608227978   11.44885579808023    5.13263328957871
C         5.28103014860591    8.61924087971867    5.21172363758396
C         4.93252781350760    8.83599362654704    6.53580192705538
H         4.12029872711219    9.51059212046166    6.76429724479479
C         5.62270428145041    8.19207247112720    7.54371570880215
H         5.36225619126270    8.36709969754257    8.57583876531502
C         6.64579252600166    7.30843190897294    7.21531292586618
H         7.18292403219102    6.79574247334105    7.99938238497791
C         6.97680639471640    7.07350984857021    5.90040976819992
H         7.76155047514517    6.38073303063105    5.63885246033191
C         6.29724465704644    7.72663652423721    4.86418323968935

