60
CSD_code = BOYKUW | q = 0 | S = 0 | Stoichiometry = C17H39NP2Pd | MND = 4
Pd        7.41179242964298    8.49024600158615    4.18254136708362
P         8.17266863616841    7.47428867865666    6.01485865669052
P         6.39294961440450    9.83672236633119    2.72706333854239
N         6.28857099315699    9.61586301599873    5.59834797187370
C         8.38633001057894    7.25707755988390    2.76725092203825
C         6.78991520643462    9.64870894363318    6.94465424333178
C         7.22886461742105    8.25392117883437    7.39414465203817
C         5.86911452292134   10.92672905941931    5.18532269346244
C         5.29220299290424   10.88817366840670    3.76890319804949
C         9.95341959793466    7.74552016297228    6.47409920592543
C        10.86205044360983    6.80223660822341    5.69300355774453
C        10.24782946660247    9.19819896330016    6.09939411794107
C         7.82089416135283    5.66119975265685    6.20466923205257
C         6.39965134471720    5.45235115498168    5.68027676873022
C         8.01494008936948    5.11873933532373    7.61517834793424
C         7.42578266844500   11.06292023830462    1.78625503798336
C         8.50308924234867   11.51473954689695    2.77211435814744
C         8.06334114328655   10.41328984320375    0.56294381951337
C         5.23273897701211    9.04215776651826    1.51498945066373
C         4.50467939852759    7.94412249551037    2.29155777078867
C         4.27840997682017   10.00482127406513    0.81913098967946
H        10.64000989422587    6.87639297260525    4.62936057947594
H         8.54796042252072    6.24012848768415    3.14380039106802
H         9.37127681141508    7.67107986129998    2.50825175073116
H         7.81391306203891    7.16749490992022    1.83623885134397
H         5.99010338605244   10.00441596719148    7.62854127269470
H         7.63067341401640   10.37054381359349    7.07047636830330
H         6.33243705685960    7.64840906555922    7.54856937974534
H         7.80623570645985    8.28698861340762    8.32250431073169
H         6.69229376376168   11.67749915217874    5.24075305130515
H         5.08288597018188   11.29821068109734    5.87625968774033
H         5.16540214712390   11.89144080402450    3.35226749475651
H         4.32039192477089   10.39072198659163    3.81147331405653
H        10.09250019361087    7.59681380083051    7.55240172999952
H        10.72810865791276    5.76953028420124    6.00742017558012
H        11.90674067869039    7.07032931098954    5.84700684880841
H         9.73438722883330    9.88544390567382    6.76962117193456
H         9.88977737597671    9.38234963418721    5.07477288672464
H        11.31558181566851    9.40964928087559    6.14162427069896
H         8.51401579339731    5.15260663686667    5.52328701462946
H         6.26240319584373    6.03757693486246    4.75845969036822
H         5.66250365787327    5.78856091034877    6.40748280784260
H         6.21021786534666    4.40251818998373    5.46254029777270
H         9.03494013677048    5.28063134442112    7.95841165108966
H         7.81579544935256    4.04781365461033    7.63385732940697
H         7.33585906120776    5.60064511982089    8.31503005223970
H         6.80972803745711   11.91826382406154    1.48107413392975
H         8.07011742335576   12.10695929071151    3.57682011381621
H         9.26824834433697   12.11192943241524    2.27760251864491
H         8.97729967420992   10.62586356866947    3.21390411861728
H         7.31818940952095   10.16681060877259   -0.19024254976367
H         8.57840639668158    9.50031768838433    0.85791196780457
H         8.78977459020608   11.08883050834524    0.11246605169487
H         5.87289630878688    8.56235070754485    0.76432014755740
H         5.22602736799868    7.40926298032996    2.92842742532786
H         4.03273756546382    7.23111596629401    1.61749006192765
H         3.73496906801071    8.36699093437354    2.93497448213659
H         4.82612790554098   10.77299807011420    0.27661493265347
H         3.62346459378742   10.49251204516579    1.53771889781084
H         3.65586311105379    9.46397143727895    0.10720561857712

