101
CSD_code = BOYSEO | q = 0 | S = 0 | Stoichiometry = C43H52N2OP2Ru | MND = 6
Ru       10.25792558679153    9.01153130381187   11.84076455591655
H         9.22272514000238    8.24668483931657   10.91495869710681
H        11.44226907081743    8.38911597248509   11.05825170976384
P        10.30626550181637    7.11204825951121   13.09927451439360
P         8.39900838283407    9.75928632075131   12.92828293132121
O        12.24480062418366   10.32908590992573   13.64723183941317
N        10.60447861399968   11.87228983816439   10.54266704523533
N        10.62941923870087   10.32405353104724    9.04819520336878
C        11.47740741209763    9.85081766362239   12.92347272397301
C        10.44827009066157   10.52925779309962   10.38053732504735
C        10.89749786409547   12.47207603972757    9.34443210859194
H        11.07660234786675   13.52185935576035    9.24517786317139
C        10.91075224253154   11.50165351491947    8.40958928152348
H        11.09944110929481   11.56313055111102    7.35834922484186
C        10.49396854310145   12.63775829017120   11.76656390381040
H        10.14208700333115   11.95132929939783   12.54800324659313
C        11.85949116813669   13.20141702548173   12.16951503138878
H        12.56954717027447   12.38223149320895   12.28955641115606
H        12.23204180572634   13.85718464834775   11.37827069149730
C        11.74129488245081   13.98792899498987   13.46976102859940
H        12.72045985353929   14.37890353827148   13.75214399941794
H        11.40448135044931   13.31896068448715   14.26499262000918
C        10.74527439245933   15.13065399325031   13.30577733499236
H        10.65868983844999   15.68756061861480   14.24057607232080
H        11.10408119463384   15.82015510281640   12.53735915063543
C         9.38089714291022   14.57886138678840   12.90688397161775
H         9.01624092868788   13.93590355259113   13.70775981767686
H         8.66717979083685   15.39484499743168   12.77406339459219
C         9.47443275683321   13.77120680350748   11.61559607173623
H         9.77497437179609   14.43676053663395   10.80368927208354
H         8.49826157682296   13.34965913706947   11.36240850887576
C        10.55937962403739    9.06541973165266    8.33603970317203
H        10.25824381670231    8.31654853358306    9.07355291761432
C         9.51138003007319    9.10760964953731    7.22310883364776
H         9.78016954640615    9.85412824040316    6.47190571605629
H         8.54258195096307    9.38303242742283    7.64596798160405
C         9.42406074263916    7.73527962072967    6.56132505968791
H         9.09908960626843    7.00138465512625    7.30139574081934
H         8.68135055577113    7.75731047154711    5.76107038017506
C        10.78264627634828    7.32397413296183    6.00134164600692
H        10.71049143856104    6.33554570755012    5.54341302507110
H        11.08271636291683    8.03002566379164    5.22287931493685
C        11.83573206215451    7.30912453190462    7.10565046274261
H        12.80772154118333    7.03468456424658    6.69097979951126
H        11.56850980832299    6.56263048075901    7.85594486422432
C        11.92819219363581    8.67569313341863    7.77679998510921
H        12.64812087883993    8.64457004417947    8.59712192890738
H        12.26569783251766    9.42031200159207    7.05149856766431
C        11.46830696931152    7.10132059966918   14.51235276646823
C        11.13498380243577    6.96717309605940   15.85456397005465
H        10.11042994648171    6.80239514966748   16.15699448727388
C        12.12067567532693    7.03976306454008   16.82536651486371
H        11.85117531094195    6.93825602518250   17.86763168619727
C        13.44192996300553    7.24135725841038   16.46803171822689
H        14.20517129464636    7.30085219504240   17.23040315512922
C        13.78322076646577    7.36866977999492   15.12994896393891
H        14.81395095127524    7.52533433084470   14.84657365486580
C        12.80211398976252    7.30391627717247   14.16172491726331
H        13.04838351225286    7.41478328013628   13.11136555694169
C        10.85280438402671    5.54344298052217   12.31894726817289
C        10.73682835756046    5.38495280894189   10.94465744720178
H        10.36588760934626    6.21568101247904   10.36176482084950
C        11.09965620827278    4.19455524403710   10.34080026026474
H        11.00827192863544    4.08057857078632    9.26959982358247
C        11.58238816670752    3.14800034726187   11.10805882984876
H        11.87127705283446    2.21843782413788   10.63905699276767
C        11.69659269877914    3.29623868175135   12.48074845373640
H        12.07309570453624    2.48136918316270   13.08284228488373
C        11.33154760759335    4.48481560146052   13.08571151512447
H        11.43067115365789    4.59346556801496   14.15755058179165
C         8.74516496653725    6.41194517941305   13.81132292133980
H         8.20915341675873    5.98915645730963   12.95196998203489
H         9.01153663724850    5.58438981975719   14.47857009128836
C         7.84140391512002    7.41275695533662   14.52367193051475
H         7.01599748406029    6.85852539298036   14.98802445922008
H         8.37912003993280    7.92201852574719   15.32735216708986
C         7.24162303386822    8.45150780184550   13.58312130170274
H         6.42239783069058    8.96054765226499   14.10105644264067
H         6.83326596055825    7.95856437605335   12.69223539871090
C         7.07939209900674   10.70975365359356   12.06436553606693
C         7.26326242889311   10.98264624976532   10.71416204904341
H         8.16636495774604   10.62602426383790   10.23650881659687
C         6.30985297898604   11.67147857121746    9.98520304961061
H         6.47569888996326   11.87486309996003    8.93658737992300
C         5.14565449639482   12.09650279007300   10.60034150954187
H         4.39853008641891   12.63894457392677   10.03961519910446
C         4.93665921341506   11.80926975615261   11.93945633270181
H         4.02221030421201   12.12410368164147   12.42205346505313
C         5.88875876209931   11.11725420446638   12.66539594579925
H         5.69154751336197   10.89820138357491   13.70545284996503
C         8.65044114413006   10.71989881829450   14.47392672427844
C         9.58977843231367   10.19985315352147   15.36190448568025
H        10.11784358436133    9.28993774352480   15.10330723319149
C         9.88540670005992   10.84244455916806   16.54794693661985
H        10.61777935912923   10.41775743938447   17.21940190840727
C         9.25438736554675   12.03521901997587   16.86128476695292
H         9.48529520597241   12.54754349182654   17.78376692489681
C         8.33805604873599   12.57598693647996   15.97639093422530
H         7.85472585690745   13.51547798116289   16.20640297251707
C         8.03885226777826   11.92814962398072   14.78899180319339
H         7.33372470298900   12.37723337792334   14.10491133471991

