49
CSD_code = BOYVIW | q = 0 | S = 0 | Stoichiometry = C16H17N7O8Ru | MND = 6
Ru        3.42670199811583    2.58177885840629    3.65360004886275
O         6.05281231640990    3.89097667340282    1.06192069466220
O         4.53001174832759    2.59779072180631    2.01805703586724
O         6.11159421775689    1.42201779372289    6.27772996267233
O         4.37911565293980    1.39760013295475    4.88561607477869
O         2.13860486789924    3.03115359544194    5.16230542499652
O         0.60304568898462    4.44262777602135    5.94210998680302
O         1.01826816308342    4.85039200921060   -0.52281108729130
H         0.58490181071188    5.58887416186787   -0.98174094115369
O         1.07782340817702    6.22866566357565    1.23114899816146
N         2.21447708654146    1.18763217037746    3.02829155621000
N         2.46712198274789   -0.07344998867976    3.17466518850971
N         1.45350918770164   -0.75686122878027    2.77448030550881
N         1.01548564946977    1.38227033124144    2.52783166065848
N        -3.23805221512107   -0.90052822679967    0.85539466063358
N         4.74849614065746    3.97244631903101    4.34985398859316
N         2.34072222350593    4.24838119901747    2.82949839400699
C         5.50405516725035    3.45016076951520    2.04469961013007
C         5.92278725486127    3.89126509446521    3.47027070712653
H         6.60371083687723    3.11601703743381    3.83982937317699
H         6.47166714036920    4.83880414522159    3.42502365074249
C         5.24330202875098    1.96913320181889    5.64665589029818
C         5.07609981245777    3.52664805923087    5.70461916636148
H         4.23933624988395    3.73027349844086    6.38174517128868
H         5.98648785148384    3.99140071853290    6.09862902694174
C         1.27161959594232    3.95193951705719    5.06891347659410
C         1.10739854441012    4.46158008372238    3.58783389470649
H         0.30936661767911    3.83976521265051    3.17364260140051
H         0.79076962638086    5.50733116281090    3.59876200198627
C         1.32427209382220    5.16625331086478    0.72810477829484
C         2.02429540123185    4.00228579690071    1.41311805500560
H         1.38057733082500    3.11270307877232    1.35222917454785
H         2.93549765674658    3.77170527001596    0.84559042124463
C         3.28587776183217    5.38381696532778    2.97889256161481
H         2.73916036675775    6.33246680152832    2.95288173169249
H         3.97599553406318    5.37180750794511    2.12912375110166
C         4.08383696892278    5.27794453931465    4.28240592376325
H         4.81117236788441    6.09928040132595    4.33107002350613
H         3.40765753526104    5.37323317671440    5.13774846611127
C         0.53658129483170    0.13798135801930    2.36867059025133
C        -0.76445314523333   -0.21096739342749    1.84535056012371
C        -1.13323889736861   -1.55037526808693    1.72585918241844
H        -0.44606733127562   -2.32491765257238    2.02550749031096
C        -2.38892361545486   -1.84104072825577    1.22178137449237
H        -2.73083868767352   -2.86014940621146    1.10709558496551
C        -2.90057457325648    0.36776405050591    0.96391689041186
H        -3.64442882825239    1.08618193849920    0.64711879919716
C        -1.67097790699992    0.77347876511364    1.45458400535972
H        -1.41776198091944    1.81796102498782    1.53837411235367

