100
CSD_code = BOYXUK | q = 0 | S = 0 | Stoichiometry = C48H30F12IrN5O2P2 | MND = 6
C         8.53065044178623   11.91277291762211   15.44629112676322
C         9.55431161230485   12.73514881037032   15.89468782372822
H        10.15327041272460   13.26844269515674   15.16959534386291
C         9.78939273376810   12.87296722059135   17.25053347916304
H        10.58241590616882   13.51816150754054   17.59965245168395
C         9.00488823552470   12.17856022200668   18.15823744153438
H         9.18893904154181   12.28152382305936   19.21761143789352
C         7.98659842098360   11.35160355973626   17.71124892161259
H         7.38036293586362   10.80941130737074   18.42255917947519
C         7.74594679352338   11.22051292518770   16.35509292437483
H         6.94662020559147   10.59626026721376   15.98488895033104
C         9.36036832761154   10.53981197940413   13.02054869254273
C         9.41190170952294    9.31299711994092   13.66687678981828
H         8.85129242772083    9.17613170396984   14.58118764735137
C        10.17076432602221    8.28587630123476   13.13858161548860
H        10.21397809939664    7.33087995417988   13.64186163873074
C        10.87375498046265    8.48075442534574   11.95988436704508
H        11.46338725667888    7.67652523148177   11.54508531083927
C        10.82177759245124    9.70394957953559   11.31326602776234
H        11.36955070420670    9.85447757332924   10.39439447152204
C        10.06486567265593   10.73322202628693   11.84320033465758
H        10.01393124439402   11.69152844651346   11.34737046896339
C         6.85837059412875   10.40121242271572   10.84976787252865
C         7.08957738589733    9.06702430346075   11.15437191947616
H         6.69598503825455    8.66288354632117   12.07638729446229
C         7.82352333230110    8.28037609066322   10.28795661059487
H         8.00885996058167    7.24297715718429   10.52435360182715
C         8.32816625528819    8.82561902358969    9.11714863730155
H         8.90683607600266    8.21064312760989    8.44375353298113
C         8.09004992424227   10.15400353585309    8.80787807528335
H         8.47816363635415   10.57610267668509    7.89176018413416
C         7.35298949213460   10.94197855587341    9.67414311202153
H         7.14953456367160   11.97848040465824    9.44531454220425
C         4.34941024537863   10.74043503421764   12.27154880553289
C         4.05032631810015    9.90744690646316   13.33815767442099
H         4.82085589866088    9.69534503410446   14.06395919962411
C         2.77841214013469    9.37748838087173   13.46040281279731
H         2.54036097469477    8.72718871070337   14.28986829205219
C         1.80865111374390    9.67927423764921   12.51751858217872
H         0.81622960724124    9.26418047013050   12.61423125981616
C         2.10680922093374   10.51388340148119   11.45192735822869
H         1.34762153660714   10.75088478251430   10.72123234234237
C         3.37856493989152   11.04273885183559   11.32792134554996
H         3.63218069449522   11.70180219887302   10.50920806499730
C         8.90446763840779   14.19276876189756   10.24971489607621
H         9.57471664632311   13.92964432856848   11.05489271961558
C         9.26926533732012   14.01500293990813    8.92671677055527
H        10.23501661750944   13.60229208384004    8.68463526069088
C         8.37179642413338   14.37934477831358    7.93497913821484
H         8.61745456318486   14.24847545632372    6.89225198759096
C         7.15405418293228   14.92376202360908    8.30465467064758
H         6.44219614246778   15.22176008120749    7.55264213528424
C         6.85526511519137   15.07989660607549    9.65434006027830
C         5.63899098347587   15.69131389467295   10.18699578047070
C         5.55791124937746   15.75522515036100   11.60435949181523
C         4.45789427411604   16.47623872406586   12.08281030088749
C         3.56848869136866   16.84036433174244   10.01886268263875
C         4.63708075126655   16.22518383305312    9.38549606819739
H         4.67235963350486   16.17316842852247    8.30948104180280
C         4.24081344273243   16.77419346407340   13.55015900501487
C         2.40626970554629   17.41421095639285    9.24121030078456
C         5.15045382169689   13.45993111123441   14.49949916969437
H         4.56560283215734   13.13289466685262   13.65107412449688
C         4.79570452807637   13.08318263459060   15.78267352539581
H         3.94742964478874   12.43616436966981   15.93320813655850
C         5.54615211567063   13.55625738030269   16.84660499237968
H         5.29877234828550   13.28529285044682   17.86133597745035
C         6.61307300166228   14.39843638552660   16.58941597090206
H         7.20458261187066   14.79107608872937   17.39937139405609
C         7.97867455322581   15.64172305695044   14.85740019494114
C         8.87444858695642   16.22941199143489   15.74105200425092
H         8.87417988060406   16.00085103963970   16.79441548659688
C         9.80177297729542   17.11886097508039   15.21887519059593
C         8.96063261497602   16.91206135827364   13.11687876531613
C         8.03273967373771   15.92619559155213   13.46729818729987
C         9.08251576410170   17.45466949536909   11.71054181279943
C        10.83656044151313   17.76071433311590   16.11242541313620
C         6.91774265211372   14.72830982119461   15.27353052181210
F         5.39007938226814   16.99358698062674   14.21629383083922
F         3.48453664467366   17.85093193352339   13.74690989588179
F         3.62842728554151   15.76255513741385   14.20018207692720
F         2.30636174728388   18.74144348663883    9.36699488426006
F         1.23312810364818   16.89503959446188    9.62296039133575
F         2.51582890952481   17.16644842718442    7.92306458764735
F         9.90381758196207   16.71352365396638   10.93758106131913
F         7.90311054051165   17.48437197276656   11.05910869196537
F         9.56057196729400   18.69529025213085   11.67654144097205
F        11.96320769600147   18.07322222775069   15.47702166902980
F        10.38203759148761   18.88526492365625   16.68876638407746
F        11.17965205769331   16.94145802951903   17.12727475342805
Ir        6.96060053940466   14.56257657049990   12.43763167644274
N         6.69910833354234   11.29128335588990   13.52766233020106
N         7.73085699110042   14.69751726157193   10.60645849952257
N         6.18313203308087   14.25355062273807   14.24970907670631
N         3.49937296014767   16.98750516343299   11.32740440401285
N         9.81757424764974   17.47954185772194   13.95152941163071
O         8.57222925284694   13.13245756166659   13.00900219026535
O         5.88796832356425   12.84689375294825   11.50317811832922
P         8.23308715522902   11.81649449924303   13.66106940892531
P         6.00108317832100   11.45107529154386   12.06448447252767

