46
CSD_code = BOZJIL | q = 0 | S = 0 | Stoichiometry = C17H20N2NiO6 | MND = 6
Ni        6.43020620877715    8.76148676135401    4.53656183948257
O         7.88567822955441    7.90279666757969    5.24366575913361
O         4.75367995906453    9.79279669412088    3.90396165286918
O         5.64306222645178    8.71269441989704    6.54306318456299
N         5.14917371506408    6.79469372140087    4.35477701960297
O         7.17496413742023    8.74866082923297    2.83519132363328
O         8.68787808470348    8.35700100233921    1.30434680590724
N         7.34008371626654   10.90019444614424    4.92831987526975
O         9.71823313727037    6.72454306541970    5.35159864048558
C         8.80626810942265    7.19021777439034    4.69304067447012
C         6.03439873190908   11.62511739559925    3.00682036176949
H         6.23882554615942   10.85134428316657    2.25982527920505
H         5.86609280763267   12.57225640543852    2.49420343330320
C         8.17744314374442    8.09064887784461    2.37633882690228
C         4.96117103704270    7.56767026455085    7.02933738464093
H         3.95759894259757    7.60296706608944    6.59681125717579
H         4.87607649794208    7.65048692186800    8.12197278881496
C         7.25035841546005   11.72823990917422    3.88526383685496
C         4.97638822200074    6.45178190554368    3.07774383255000
H         4.70806975661195    7.25897640665511    2.40853376272663
C         8.68399119318645    6.89635745862396    3.19872097921382
H         9.64158152437858    6.55206243408465    2.80852585576099
H         7.94783122213319    6.09353432914651    3.08639381079782
C         5.63309202015369    6.23964553141291    6.67741177804667
H         6.70632877135233    6.31790444899080    6.87997596205386
H         5.22934214823205    5.45291637747924    7.31760747426994
C         5.64031028152551    4.51488316264422    4.85126594643408
H         5.90517112628952    3.77260553428996    5.58856112646569
C         5.46134620599634    5.84108630872110    5.23384756023233
C         8.25030971110562   12.64860397696468    3.58682563914544
H         8.14522650946421   13.29839381295109    2.73168517408133
C         4.77533680942474   11.20838712522742    3.76147770735337
H         4.74805969187336   11.69385324319893    4.74522002409419
H         3.88693127694791   11.51017369308626    3.18821161177069
C         5.13538329975820    5.15863781157038    2.61292582353076
H         4.99761370168322    4.93304870460820    1.56763902489654
C         9.46487076089833   11.85297875577958    5.47188825645272
H        10.32415200677496   11.86127379944498    6.12320084284048
C         9.37823998386827   12.70761309217418    4.38428128656949
H        10.17248208543594   13.40553829348678    4.16404098014945
C         8.42158795682524   10.97384288239036    5.70059948809854
H         8.45815654897505   10.29121692129189    6.53945978959935
C         5.48529346856065    4.16951856715785    3.52101659258695
H         5.62980799262122    3.14926440635031    3.19822744925773
H         4.03947555088189    9.54854441155586    4.50422884081152
H         6.53652752655510    8.70114009955587    6.91908343612946

