51
CSD_code = BOZLEJ | q = 0 | S = 0 | Stoichiometry = C16H24N2NiO8 | MND = 6
Ni        0.00005656753636    0.00004942392808   -0.00000599127689
O        -2.37185082198754    4.58985077372370    1.01911431664653
H        -1.46363683485192    4.79619510772862    0.76913109754278
O         2.60997448921772    1.18198992300420   -1.40450625368078
O         2.29016620679261   -0.15416999488698    0.87630199029751
O         0.49065050040976    1.66083969098869   -0.93480033254294
N        -0.40426258502950    0.99957618550715    1.53327969867775
C        -1.14563245447642    2.09827372871641    1.42974421532080
H        -1.42091044729411    2.41075985279376    0.43054565705009
C        -0.36971869968387    1.29488642926849    3.89162962531530
H        -0.03384867300369    0.94080983459302    4.85332642792856
C        -1.54582398219932    2.85184393489813    2.52359898672562
C         1.60547634954113    1.89500806162251   -1.48421575329253
C        -1.15361403421745    2.42925914040944    3.78841255518143
H        -1.45157510182126    2.98269390696786    4.66706576265666
C        -2.38660674572678    4.08938934558389    2.32941807227679
H        -3.43487936272183    3.84889178393640    2.53788075092708
H        -2.06940157509950    4.86005330858283    3.04873269267238
C         1.66648222726153    3.19073578153622   -2.29315266304945
H         0.66671518287484    3.51441697417479   -2.56761886607393
H         2.27594116178016    3.03495130439024   -3.17880635906135
H         2.13833911416989    3.95622157003530   -1.68040752395024
C        -0.01128363345056    0.60963437080097    2.74162852801475
H         0.61176213878231   -0.27164479323773    2.78981732490844
H         2.68110287156191   -1.02608043687489    0.78904421748200
H         2.57657063409424    0.34996112820613    0.07509437609570
O         2.37148535182460   -4.58983124150151   -1.01944534121602
H         1.46325590811367   -4.79605252627840   -0.76940476507626
O        -2.60989612736707   -1.18245975781855    1.40457520861220
O        -2.29013384534871    0.15375738433334   -0.87605365692221
O        -0.49040212112798   -1.66069364605606    0.93496707352536
N         0.40424454240273   -0.99942618476480   -1.53338441906900
C         1.14553454153058   -2.09818643847473   -1.42996762718947
H         1.42088133666165   -2.41072639245353   -0.43080692732928
C         0.36948275680242   -1.29464425619254   -3.89174490181601
H         0.03358022225969   -0.94048630341089   -4.85340023693344
C         1.54557330476561   -2.85174901529776   -2.52387899570162
C        -1.60520069735436   -1.89517441694156    1.48436254074324
C         1.15331831117436   -2.42907290646560   -3.78864777483192
H         1.45118705439173   -2.98246993145649   -4.66735540765764
C         2.38619256653264   -4.08941236310030   -2.32976317520918
H         3.43447988739521   -3.84910174322199   -2.53834409469668
H         2.06878902068494   -4.86004945119564   -3.04901246899857
C        -1.66570883415065   -3.19059624973946    2.29356496986143
H        -0.66595093073436   -3.51476530323166    2.56690156094742
H        -2.27383635295014   -3.03475019866492    3.17996522202703
H        -2.13857097719350   -3.95604592113565    1.68182972736701
C         0.01118133298817   -0.60942251308956   -2.74168675265576
H        -0.61180178960031    0.27190676199883   -2.78980328203795
H        -2.68133645426506    1.02555308508316   -0.78880966201446
H        -2.57654049989214   -0.35049680732439   -0.07490936652124

