63
CSD_code = BOZLOT | q = 0 | S = 0 | Stoichiometry = C20H32N2NiO8 | MND = 6
Ni        3.59509906240520    2.75180857943019    0.00198504991748
O         4.46172616295810    1.24937963627003   -2.75114522648212
O         3.90515560903897    3.79602332763174   -2.20830078711862
O         3.35582002254353    9.99602287800043    2.37229913203281
H         3.33287054194907    9.70745467749536    3.29164971791772
O         4.90643507425816    1.40891838530018   -0.57636409680244
N         4.97460719112767    3.77646409124173    0.74779693119020
C         5.78667892564547    3.20785915472673    1.63584039067527
H         5.70448781470150    2.13503469279529    1.74255841350197
C         6.02865319540462   -0.27659347170134   -1.78275055150447
H         6.06971267722243   -0.78994130478363   -0.82647726266701
H         7.01441522562614    0.12658614160491   -2.00647199532735
H         5.74463975210870   -0.96035338975922   -2.57767229752968
C         4.51392254167464    9.48156375204009    1.76330279275343
H         5.41444911406049    9.94712957004905    2.19314049901018
H         4.44415840699445    9.77599281396423    0.71327764118423
C         5.88405160140140    5.91848261015503    1.29646214747606
C         5.03904244540876    0.88713278731162   -1.71972200522536
C         6.72029970120681    5.32276901839623    2.23206720447169
H         7.38953364506895    5.92751030801560    2.82704025425538
C         5.03494237441435    5.09202672953222    0.57044072261636
H         4.36250934845681    5.51466218522548   -0.16598692805293
C         6.67871813230512    3.94834374993899    2.39139461403684
H         7.31705926112516    3.45434214289010    3.10654930662357
C         5.81915861466319    7.40508941509963    1.11694806512909
H         5.71720660626495    7.65241311563382    0.05871221730854
H         6.73311074250885    7.86906241644207    1.49284479110205
C         4.61161175424354    7.95999691726717    1.88068058587163
H         3.69620280171139    7.51343755481572    1.48940581103387
H         4.69204731669190    7.67961049989990    2.93501083041511
H         4.00496389916378    2.88399482803516   -2.58194703143477
H         4.77713860957591    4.19054976752726   -2.28095542989963
O         2.72732720703647    4.25632121792210    2.75397678374315
O         3.28176705955854    1.70823131912481    2.21218043284137
O         3.84043785423608   -4.48574012915037   -2.38906704599330
H         3.85533016448625   -4.19683095531927   -3.30843756259573
O         2.28481527792543    4.09618508997778    0.57882466346537
N         2.21591324826955    1.72648260872277   -0.74365078485840
C         1.40135806065370    2.29461590986524   -1.62971874964354
H         1.48182258225350    3.36764644650774   -1.73571150274027
C         1.16602409855589    5.78601616927977    1.78197989851060
H         1.13840289224526    6.30711115806196    0.82951616185277
H         0.17627774300600    5.38457140960743    1.98981452522971
H         1.44261869412808    6.46232362512755    2.58554836244955
C         2.68539647390662   -3.97532280786833   -1.77092188500805
H         1.78311517328773   -4.44358331148154   -2.19404999100448
H         2.76421564834641   -4.26998631932433   -0.72163048706015
C         1.30892502578601   -0.41647247763787   -1.29264844888919
C         2.15286022751566    4.61979330564356    1.72138542333557
C         0.46969944435754    0.17880483694564   -2.22588010518065
H        -0.19978392687123   -0.42643959282525   -2.82005486462554
C         2.15795125438873    0.41066938431161   -0.56735855701211
H         2.83224119318022   -0.01157217955299    0.16759746080536
C         0.50879866729056    1.55344322792501   -2.38400182983908
H        -0.13186703306032    2.04712429719560   -3.09729939037799
C         1.37751316308127   -1.90318326449734   -1.11554506748079
H         1.48591458666715   -2.15185954890533   -0.05829155061822
H         0.46247894728681   -2.36848383132015   -1.48711292027644
C         2.58209995215689   -2.45404714727720   -1.88684916155772
H         3.49837848279724   -2.00473718010320   -1.50084393993987
H         2.49441134639880   -2.17340109872187   -2.94051137970022
H         3.18320653780655    2.62125241405852    2.58380878918976
H         2.40882178137036    1.31579384336127    2.28333921652566

