95
CSD_code = BOZNIO | q = 0 | S = 0 | Stoichiometry = C38H40N6NiO4P2S4 | MND = 6
C         4.56948113782141    2.59424478739926   14.97120634073165
C         5.76753147097060    2.23105730472814   14.37847574557413
H         6.67646998647054    2.26226534043083   14.96270875409589
C         5.80106052803766    1.84256359604644   13.05239503057597
H         6.74436277148424    1.56066815193558   12.61174795681744
C         4.62473285740966    1.82728213761055   12.30571563825243
C         3.41987122222185    2.19412605820251   12.91220029714122
H         2.51933468618120    2.17217529124072   12.31892602003922
C         3.39312671415967    2.57556733096867   14.23442205691007
H         2.46347893993962    2.86462299336556   14.70448469058260
C         5.71347210590898    1.08296502148200   10.32318563238020
H         5.40294282928668    0.85065389810102    9.30585371422102
H         6.15011448961795    0.18988570300680   10.78041252331309
H         6.46075912141118    1.88251466041714   10.29938573396985
C         4.88485669146960    1.63894988888520   18.82721599021928
H         4.56185057619922    2.59757389696452   19.25973569678028
C         6.33199816527956    1.36717040952787   19.20695252525591
H         6.96476148728042    2.17868347858051   18.85443174247835
H         6.66426619811928    0.43852522300046   18.74896805015309
H         6.42290627361735    1.28704772316804   20.28672275485349
C         3.94194670182453    0.53496534600779   19.27943264301915
H         2.92381185536692    0.77284438942893   18.98073403648955
H         3.98097198979365    0.43377576770943   20.36041185463628
H         4.23030065290662   -0.40689590466946   18.81897858570163
C         3.86113485380457    9.40620797646249   15.13372938008939
C         2.57813304782695    9.91856122611990   15.19451711375679
H         2.19754885827299   10.28254181926584   16.14019981840478
C         1.77779908486595    9.94424622263256   14.06824800912621
H         0.77045833529374   10.31760641980874   14.15021604604576
C         2.27140266807314    9.45615701218520   12.86259949860719
C         3.59726773044989    9.01504409301990   12.78833367927622
H         3.97448492217256    8.67834222833124   11.83490637854757
C         4.38099846998733    8.97763583737961   13.91836682612093
H         5.39442555592415    8.60337187972937   13.88434102601422
C         0.16038479138350    9.62390767804625   11.79439019819841
H        -0.24558841405128    9.33073853241189   10.82712968498467
H        -0.03261944738636   10.68921740376310   11.95705282161559
H        -0.31275193308638    9.04279669768544   12.59186022723287
C         6.11838320451030   11.61958402003212   16.74631695692238
H         5.51909324350110   11.73632063779184   17.66163070475817
C         5.49972859942672   12.44553010154713   15.62678965978167
H         4.45896234041561   12.15982742819700   15.48537079229969
H         6.03735267299519   12.27231695996935   14.69697348581628
H         5.54516036065814   13.50203865013849   15.87701636937511
C         7.56391042551380   12.00892085927197   17.01806508105757
H         7.97562745851542   11.37267404670229   17.79677134919178
H         7.61495239735260   13.04558833169467   17.33902741222787
H         8.15620156521979   11.88077609382209   16.11536423480154
C         2.18517208957938    6.84768425526805   15.53637233853545
C         0.46624173216015    7.94336301376864   16.48358719649821
C         2.21869421651109    7.32803648030156   17.76805500128853
C         2.85298814180807    7.13686050937485   19.07658649696654
C         2.29408391055620    7.64874803075074   20.24426451927308
H         1.38568774871558    8.22350431361061   20.18245196870710
C         2.95475277982820    7.43171934154782   21.43813107062309
H         2.55716139662152    7.82275833168168   22.36302231353386
C         4.14206322537312    6.71379583130541   21.42644564383049
H         4.69250743767404    6.53543889192575   22.33705084757127
C         4.61582279321535    6.22535422594869   20.21730228387304
H         5.53721875383565    5.65858367472422   20.15917572998685
C         2.83320728827271    6.25586514304463   14.36103741763439
C         2.19958852956851    6.22146821633512   13.12341747884669
H         1.18857601648289    6.58472464597499   13.04333586916215
C         2.90356185967318    5.72419415959504   12.04120426607523
H         2.44495829924497    5.67529282161191   11.06496736874903
C         4.21449041986466    5.31348581986108   12.22879242185718
H         4.80581369156064    4.94985533786213   11.40331298016766
C         4.75704706726369    5.36618964048284   13.50520600716936
H         5.77440963151446    5.05159434594796   13.69928666816944
C        -0.80133450259045    8.66624455458081   16.34979027113932
C        -1.46293857404115    9.13203319545845   17.48697925456899
H        -1.03513412082685    8.94399093371577   18.45750956288038
C        -2.64922522096730    9.82485329059706   17.32389992924228
H        -3.18897046385588   10.20007249674475   18.18115708290777
C        -3.13041274512119   10.03044994248141   16.03990147121448
H        -4.05114909141987   10.56527915611890   15.86621292171292
C        -2.39087780137249    9.53219541107421   14.97444938330498
H        -2.72218160149524    9.67466275557100   13.95309667816775
N         2.86931676065123    6.84341127122537   16.68886872347640
N         0.98693232717741    7.38065866701597   15.39644125458136
N         1.02205076810571    7.88203247750592   17.68873615136152
N         3.98484871427477    6.41650674719729   19.07057967475855
N        -1.26065228776118    8.86998750961163   15.11628086544760
N         4.07645455799340    5.79725131584099   14.55339824301312
S         6.11014611701050    4.38797389266398   17.12027481606403
S         2.85508785622040    3.98964229003451   17.24264584121585
S         5.90546264485938    7.51229526958707   16.61443191580349
S         3.85054269041405    9.82983820311153   18.23401733794906
P         4.58243861989756    3.15460724227790   16.69907043305706
P         4.87808227839602    9.26043132248966   16.65008941691886
O         4.79306176126761    1.72681978506562   17.39435524215289
O         4.54286674687132    1.48771839335213   10.99420822451464
O         6.12472619490136   10.23747111115673   16.38665391648560
O         1.54512790498236    9.35873646512948   11.72067485514853
Ni        4.42192319185299    5.81493462032089   16.87724987574815

