66
CSD_code = BOZPIQ | q = 1 | S = 0 | Stoichiometry = C27H26N6NiO3PS2(1+) | MND = 6
C        -2.51205890510180   -0.18397181495365    3.38186022793680
C        -2.55355657850523   -1.23499928163812    2.47726245157179
H        -2.65103738285526   -1.02640175827676    1.42135241072060
C        -2.47500970296905   -2.53921734518218    2.92284741087153
H        -2.51989891246379   -3.34248853471263    2.20526026083280
C        -2.34087903706632   -2.80196624052044    4.28788818229014
C        -2.29391999458898   -1.73193658747439    5.19080573149761
H        -2.19986652237181   -1.95385092528736    6.24174992232796
C        -2.37839828374086   -0.43481485318797    4.74229000775309
H        -2.35094018845129    0.38900262842610    5.44228547768329
C        -2.34032584163492   -5.16601982584945    3.99892356211831
H        -3.30241361700037   -5.19393614618734    3.48055325837745
H        -2.26570796962486   -6.02271307383505    4.66571532894356
H        -1.52717358366413   -5.20413348586968    3.26814316464784
C        -4.46577200917643    2.64867463596459    1.31939947853962
H        -3.78768228689010    2.87224418129416    0.48799303005140
H        -4.48085462788423    3.50469308639926    2.00377118016812
C        -5.85808514705460    2.32672325134884    0.81762273284317
H        -5.82645822239103    1.47329172804805    0.14568042662891
H        -6.25998436900933    3.18403061096411    0.28573227159504
H        -6.51005867064982    2.08814583713707    1.65357755657830
C         0.35904518199637    4.86193284046168    5.05166315810335
C         1.15803865672784    4.56058352129995    7.14403489738272
C         0.80197924818352    2.76214137492816    5.82949374998829
C         0.85742182972034    1.32312614098341    5.55842841005503
C         1.15790130436983    0.39583458744871    6.54815929843222
H         1.34381079361475    0.74456415807153    7.55123377492435
C         1.20676698473771   -0.94474132421838    6.19862671476978
H         1.43276370664045   -1.69673615307351    6.93867519927807
C         0.96859014192921   -1.29942024041625    4.88022455673337
H         1.01175865403511   -2.32949001371652    4.56554035104749
C         0.67682741936000   -0.30343541243799    3.95627417636361
H         0.49215029720729   -0.54798646066657    2.91774662497014
C        -0.12221491442300    5.69827095218680    3.94748491654334
C        -0.36772073493246    7.05740634478902    4.09542457952097
H        -0.17811249087828    7.52710712020654    5.04637846407704
C        -0.86401970599013    7.76135754513120    3.00902712893575
H        -1.07063999818101    8.81753978032752    3.08810879005675
C        -1.09351279304316    7.08176906123428    1.82360395033438
H        -1.48181971806111    7.59211725766009    0.95677540393206
C        -0.80909714754218    5.72230241029106    1.76159811722678
H        -0.96846270970722    5.16138938775040    0.84914850327679
C         1.57104547997781    5.11451216550342    8.42904091677929
C         1.63407533382561    6.49617223163349    8.62236269754298
H         1.37809507389930    7.16144236918452    7.81436280807539
C         2.03513319733197    6.96687024496017    9.86191696690977
H         2.09823085807560    8.02803089030344   10.05099376946747
C         2.35297967183883    6.05108177076221   10.85210247018583
H         2.66836108804198    6.37552310853084   11.83092079711009
C         2.25586764222953    4.69310472702081   10.55426388373477
H         2.49280393641880    3.94129881182907   11.29478976007138
N         0.33958465385607    3.53676961235631    4.83493211195467
N         0.76387184910806    5.40036880651386    6.18147943229934
N         1.20212227198881    3.23872319840886    6.98526573425052
N         0.61047875093404    0.97805941091869    4.28220599873058
N        -0.33472901116398    5.04127019500460    2.79268696743044
N         1.87833390779014    4.23517074183550    9.38211190218262
O        -3.97267572736262    1.49828032519742    2.02308653866099
O        -2.23573199198736   -4.02898817214670    4.83080761759746
O         1.78548267221903    2.93882785025039    2.29204330093701
H         1.97264296879600    2.06480873968107    1.92910861565251
H         1.70995040900116    3.53780359713786    1.53974645046999
P        -2.55766805150428    1.50922002430539    2.75003156726772
S        -1.08132264440804    1.90421496768417    1.43911303678518
S        -2.45273238347115    2.90376248132197    4.19384339096692
Ni       -0.25177210804913    2.81498293679568    3.26961842507100

