57
CSD_code = BOZPOX | q = 0 | S = 0 | Stoichiometry = C20H24N2NiO10 | MND = 6
Ni        4.31089966769188   -0.00156656733450    0.00096820852155
O         3.70959274036885   -0.57666569288914    2.29344456582765
O         1.38563359899609   -1.01404688258307    1.18415564508304
O         2.56616089100580   -0.55529933125314   -0.64925272699639
O         2.35445905024931   -3.50172589446690   -1.54517919582737
O         2.54436012836921   -2.81869427852124   -3.65330847957578
N         3.64356800614684    1.61814236261011    0.66640245181097
C         0.88834098837683   -1.74990637234174   -2.36344697601408
H         0.06713249076847   -2.10404584429979   -2.99166925345888
H         1.27267327361230   -0.82547374357748   -2.79742794735760
C         1.55320378628789   -0.98877976833186   -0.03922926191910
C         2.89761113221152    4.12734892297546    1.54505519386314
H         2.60969384825790    5.10861181702549    1.89212805088446
C         1.98911418020425   -2.77349621382126   -2.42689245156509
C         3.39633953737500    1.82083287616650    1.95835142048671
C         3.16472480192022    3.89934378812841    0.20319620969034
H         3.09738526725046    4.69421407437522   -0.52126967593094
C         0.41989376946821   -1.51755090367229   -0.93512119097548
H        -0.39441243106793   -0.79139369041636   -0.91239410375393
H         0.06424990046017   -2.44488815509365   -0.48461311023269
C         3.00960252714090    3.07227647660674    2.42988382488543
H         2.80145039703472    3.19957424646914    3.48237041857343
C         3.57329932622225    0.66413704981713    2.91899483740480
H         4.49538486416412    0.83876986389272    3.48955448247871
H         2.72900609314564    0.65717373418177    3.62411352655928
C         3.52998603584287    2.62760254550218   -0.19464975253929
H         3.74463468642540    2.39849500720969   -1.23170274986799
H         2.79695230342016   -0.83164939001130    1.94870422685261
H         3.23385075840933   -3.50074975675687   -3.68034827490696
O         4.91347871741819    0.57438931128637   -2.29078390193144
O         7.23736228743177    1.01012562084923   -1.18076385259186
O         6.05504937641786    0.55250436508230    0.65177723640428
O         6.26013445846781    3.50264075089183    1.53293136636482
O         6.06827750415608    2.83376178110919    3.64539899292615
N         4.97729275005564   -1.62130499852159   -0.66515591198362
C         7.72687995043814    1.75780306370456    2.36491002983530
H         8.54602389484397    2.11568478471790    2.99369402066762
H         7.34189598980828    0.83537122208452    2.80257548362564
C         7.06815586940063    0.98660952551812    0.04241328994307
C         5.71366957281848   -4.13246888655336   -1.54639783346981
H         5.99787961118452   -5.11444675548472   -1.89445800352187
C         6.62511356581529    2.78080733186175    2.41999710687415
C         5.22233359908702   -1.82397778816138   -1.95753411122357
C         5.44936540113420   -3.90435701695325   -0.20399690117044
H         5.51518951781734   -4.69987222399372    0.51990432565866
C         8.19956093834275    1.51815049374499    0.93915751386214
H         9.01288537272307    0.79069612526198    0.92265107647249
H         8.55791712016864    2.44279653929964    0.48528274629399
C         5.60427535533380   -3.07641169651208   -2.43033402365973
H         5.81082088485882   -3.20372649404333   -3.48314174679516
C         5.04824774060206   -0.66608652573001   -2.91729940985527
H         4.12644115245987   -0.83842713928046   -3.48900349624835
H         5.89330497460671   -0.66000604828520   -3.62152127934488
C         5.08891544316894   -2.63165552754161    0.19513828358859
H         4.87645472428960   -2.40246429676353    1.23263192572534
H         5.82633800214730    0.82820263794028   -1.94575878465499
H         5.37784460524122    3.51507156488235    3.66686794621417

