44
CSD_code = BPNCUB | q = 1 | S = 0 | Stoichiometry = C20H16N5O2Zn(1+) | MND = 6
Zn        2.32533790229384    0.80277538773322    1.90823315399225
N         2.98266297906316    0.86590970646563   -0.10236886687272
C         2.41214800203307    0.21076841623698   -1.10354753835498
C         3.09905094419098   -0.15008051824689   -2.25140649710056
C         4.44288132791052    0.17643068876663   -2.34295255775523
C         5.03912504996379    0.86599946726528   -1.29978486466177
C         4.27411145399086    1.20767240711575   -0.18666873750740
C         4.81683241261521    1.94048600929066    0.96908372405170
C         6.04818035736671    2.59365207276788    0.93813721008579
C         6.49334002806726    3.25334901639311    2.07082530842449
C         5.69630945447846    3.24900412265592    3.20516171408536
C         4.47961680614711    2.59005623731752    3.14904220176566
N         4.05178751739758    1.95976920422287    2.06616396533865
N         1.66551491282799    0.88227730740829    3.91716672655218
C         2.15902623122112    0.14656459481591    4.90323917549333
C         1.43135384073767   -0.17012609594549    6.03901535781553
C         0.12789441492945    0.29108919701452    6.13415753493041
C        -0.38745070737906    1.06449776932147    5.10684615746291
C         0.41562159495110    1.35330539791397    4.00562982944150
C        -0.04146197090292    2.16784091410484    2.86770044880281
C        -1.20140532736757    2.94025516584142    2.90971291719439
C        -1.56872882921941    3.67176273458852    1.79335718091169
C        -0.76610093347263    3.61881891042089    0.66419196501189
C         0.37769549340705    2.83946662932639    0.70876919731791
N         0.73063606000892    2.13951402197843    1.77577178479589
N         2.19725239424734   -1.64964646465855    1.87650815613535
O         1.23360556585073   -0.93084931920870    1.57711957537949
O         3.22846678315183   -1.03967473847164    2.19265348113139
H         1.36827486091513   -0.03925145368784   -0.97075625043802
H         2.59611405058592   -0.68218107666974   -3.04194614981946
H         5.02083173169029   -0.10464965323290   -3.20965365590347
H         6.08718491282990    1.10959381528787   -1.34822175058106
H         6.64771113131229    2.60040131173952    0.04332138298447
H         7.44502909320708    3.76182711702989    2.06675262455856
H         6.00729266790145    3.74590436829677    4.10944397111102
H         3.81788971179602    2.56679547196953    4.00295736242550
H         3.17191086362365   -0.20778239462833    4.76752977710835
H         1.87179651075316   -0.77095981457350    6.81755015856181
H        -0.48123060568651    0.05005529221407    6.99156173460385
H        -1.40501256495501    1.41386989278566    5.15773549136233
H        -1.80545777883927    2.98243089829579    3.80050095199349
H        -2.46473289658293    4.27283047402331    1.80612710314906
H        -1.01721166369668    4.16995868714820   -0.22714624678359
H         1.04180621663610    2.77436882156576   -0.14111420820123

