23
CSD_code = BPYCPT | q = 0 | S = 0 | Stoichiometry = C10H8Cl2N2Pt | MND = 4
Cl        1.56096032819668   -1.85934701741707    1.70077520095155
C         0.72926188394573    2.48170441474088    1.70070984803191
C         1.51656667711919    3.63268490064883    1.70070338339433
C         2.89347562730312    3.51923029925455    1.70071042616131
C         3.45874998920078    2.24931391978023    1.70070667294530
C         2.62703218065924    1.14726067261412    1.70070495771049
H         1.05443684093446    4.60603678263690    1.70069505629454
H         3.51450835837822    4.40134913249689    1.70070165239892
H         4.52800164190754    2.11550646755434    1.70070610578339
H         3.01547622323667    0.13626447026084    1.70068489462375
N         1.29820038139827    1.25317317665794    1.70071840525324
Pt       -0.00000000000001   -0.25915443845690    1.70046679290249
Cl       -1.56096032819665   -1.85934701741710    1.70077520095166
N        -1.29820038139828    1.25317317665794    1.70071840525321
C        -0.72926188394574    2.48170441474088    1.70070984803191
C        -2.62703218065924    1.14726067261412    1.70070495771047
C        -1.51656667711919    3.63268490064884    1.70070338339434
C        -3.45874998920078    2.24931391978023    1.70070667294530
H        -3.01547622323668    0.13626447026084    1.70068489462372
C        -2.89347562730312    3.51923029925456    1.70071042616132
H        -1.05443684093446    4.60603678263691    1.70069505629455
H        -4.52800164190754    2.11550646755435    1.70070610578337
H        -3.51450835837822    4.40134913249689    1.70070165239893

