35
CSD_code = BTCBZN | q = 0 | S = 0 | Stoichiometry = C8H16N6O2S2Zn | MND = 5
Zn        1.82684319556027    2.69703779019898    3.24175289382678
S         2.40309976155429    5.05891161078692    2.87462849015769
S         0.74551460415523    1.38049365199640    1.46041638664188
C         2.87044074510274    5.28539396166214    4.51603702411125
C         2.41904379457202    2.20091469972883    6.00813429057706
C         1.87088214861168    0.96788392165132    5.52219953207522
C         0.59068242963546   -0.00412817033518    2.46925269432052
C         2.92155490719213    2.29659410000946    7.43230385299627
C         1.76104704999272    2.65953602908942    8.35972195618582
C         4.70291621630859    0.74828046211429    7.27312047445061
C         5.17587077417280   -0.57958523353125    7.84153293389742
N         3.32184970672336    6.51554559715922    4.82472751584258
N         2.87557885788847    4.40372391442065    5.48828690459469
N         2.42392385069892    3.19178212326273    5.17762416015949
N         1.47816095941035    0.93564608069006    4.29590772776395
N         0.94008291866080   -0.13388889007224    3.73076327730948
N         0.06432608906744   -1.09465126640903    1.88490790717119
O         3.47334807846313    1.07990039969040    7.88313552855623
O         3.89507106674362    2.13468243750289    2.34404754160671
H         3.24370826464227    7.24622244394745    4.14029619273953
H         3.51359630472733    6.73565166506988    5.78667847539524
H        -0.12640767026335   -1.90439288220269    2.44939418679412
H        -0.30528029933281   -1.01974529451873    0.95425372199987
H         1.80872581437472    0.11166783002596    6.18532818175435
H         3.68126281592730    3.09604762910738    7.46566046322049
H         1.00213607766054    1.88310161104996    8.31732531098872
H         1.32960047986833    3.60725404263330    8.05071463426912
H         2.12355255845255    2.73977898019164    9.38057821099673
H         5.44207757987346    1.54000674436215    7.47736651754080
H         4.58067715993215    0.67659593884152    6.18114835104733
H         6.13253770647185   -0.85179707465129    7.40502509205261
H         5.28139662594419   -0.50157358628386    8.92013355930555
H         4.44811822262255   -1.35572367151005    7.62152389173635
H         4.34453402903964    2.94673227589786    2.08353258946482
H         3.75922717554506    1.62280012842512    1.53913952844885

