61
CSD_code = BTCCEG | q = 1 | S = 0 | Stoichiometry = C18H36AuN2S4(1+) | MND = 4
Au       -0.00077009403532    0.00006430948340    0.00018163820538
C         1.23715318847203    2.49687686531281    0.68704637961355
C         2.20941608474402    4.56262932979299   -0.03585260325399
C         3.63145893086126    4.27579794576079   -0.52504366574045
C         4.05318509549614    5.27354141402834   -1.60217726727698
C         5.46549358471834    4.98883069431102   -2.09677421160308
C         2.11727082063159    3.94286281921829    2.38289603988587
C         0.89816153197542    4.46395683474005    3.15052685693043
C         0.34513122063698    5.77753825902250    2.60201693918157
C        -0.79404059313047    6.29581502252240    3.47166928004307
H         2.14849635846254    5.57147581834653    0.37363932458351
H         1.51114212306438    4.48011157216309   -0.87384587430517
H         3.67419605032721    3.26312726198146   -0.93088023250623
H         4.32702689329454    4.33154817748061    0.31488772044600
H         4.00687428666597    6.28608561278925   -1.19684986237645
H         3.35541053855782    5.21640487358041   -2.43949796953036
H         5.74799260851551    5.70701622024415   -2.86105710253618
H         6.18034492420423    5.05894244399726   -1.28045887680547
H         5.52804780656298    3.99120528112194   -2.52456075374777
H         2.90960023103396    4.69188338521641    2.38287054288209
H         2.48598794419246    3.03504619873999    2.87064196741982
H         1.20362353545478    4.60802334010400    4.18778751107480
H         0.11378550045753    3.70524648960615    3.14148752933680
H        -0.02271217141405    5.62951436010180    1.58392614522360
H         1.14085921153110    6.52539398331123    2.57294285119907
H        -0.44864728674925    6.47568091194716    4.48653485417020
H        -1.60671908440916    5.57433303648762    3.50859040653098
H        -1.18145174677393    7.22863104701257    3.07150581104878
N         1.80782545541582    3.62811917720323    0.99850706882117
S         0.82270079054477    2.03518818191335   -0.91362348854164
S         0.81827957800258    1.28447260327351    1.82671578540412
S        -0.82371124281356   -2.03485398463972    0.91410708501335
S        -0.81922595112489   -1.28398794804062   -1.82622993675841
C        -1.23785440006265   -2.49656152019506   -0.68664030586128
N        -1.80813517584167   -3.62796070947498   -0.99826410041997
C        -2.20956467543054   -4.56271756736706    0.03593726438455
C        -2.11727312131554   -3.94270191162582   -2.38272738924273
C        -3.63182323956858   -4.27650896082917    0.52486270250500
H        -2.14816850747288   -5.57150186040045   -0.37363996729870
H        -1.51149297973460   -4.48001333771092    0.87407737619984
C        -0.89785726131579   -4.46322827956383   -3.15025553774394
H        -2.90928765926336   -4.69205388350573   -2.38287895158922
H        -2.48632171571909   -3.03500435257531   -2.87044197217940
C        -4.05343252483303   -5.27458231549660    1.60173580882130
H        -3.67502998440421   -3.26391870671891    0.93084512485743
H        -4.32717850618457   -4.33239208924447   -0.31523394886646
C        -0.34435681502979   -5.77663471049843   -2.60180448798950
H        -1.20312215018201   -4.60731040787638   -4.18757104320653
H        -0.11378876195108   -3.70420486582872   -3.14104267056792
C        -5.46600303870567   -4.99054227679601    2.09597382664653
H        -4.00657735176728   -6.28704589013208    1.19627217369175
H        -3.35592181098185   -5.21726848660720    2.43926086451435
C         0.79516476330090   -6.29434300761012   -3.47133921567386
H         0.02327441926225   -5.62856869002076   -1.58364452633933
H        -1.13977601514366   -6.52482289513121   -2.57292185010879
H        -5.74841537151729   -5.70895177420901    2.86007785072451
H        -6.18058787858960   -5.06086148563968    1.27944308838585
H        -5.52911568414209   -3.99300196785553    2.52386883390391
H         0.45000942552795   -6.47422837843531   -4.48626886029018
H         1.60755523318201   -5.57254406595870   -3.50806454096028
H         1.18289466451065   -7.22704714082961   -3.07124543833242

