37
CSD_code = BTZANJ | q = 0 | S = 0 | Stoichiometry = C18H14N4Ni | MND = 4
Ni        6.90952658109689    0.00000967798454    6.87898439745257
N         5.09289039069663   -0.45684370798806    6.88462337784414
N         7.38292065893238   -1.34763761540999    5.66747394369761
C         4.32443294183761    0.35955625651261    7.72389407174593
C         2.95308003622569    0.26521345956701    7.94486964183942
C         2.32341721824187    1.14944146456310    8.80298756536337
C         3.04944558780542    2.13444703665448    9.44778024843214
C         4.41382861355809    2.24392401145917    9.24437381875242
C         8.75147427674968   -1.36223979309798    5.37004018998727
C         6.56555755824548   -2.21926184416072    5.10700844991733
C         5.19977954739684   -2.28494108945198    5.33510963632795
C         4.52713593788921   -1.42691938726311    6.19108752069343
H         2.35421589527309   -0.48937838358353    7.45964009045332
H         1.25934855085061    1.06503747043088    8.96515758016874
H         2.55571348165025    2.82440402692139   10.11541556972928
H         4.94625861951824    3.02506408859927    9.76381555250219
H         6.96997773801389   -2.94729225666984    4.41032284055868
H         4.63167000986026   -3.04159393566976    4.81877777364121
H         3.45603835794334   -1.58141152581478    6.28005295017549
N         8.72616522653316    0.45686133893137    6.87334661799099
N         6.43613403554693    1.34765369316861    8.09049640554536
C         5.06758610197379    1.36224161895383    8.38794579597289
C         9.49462808582871   -0.35955392105106    6.03409140492832
C         9.40523620956754   -2.24393540468674    4.51362863032531
C         9.29191943375619    1.42694402703362    7.56688010784228
C         7.25349294020912    2.21928068880812    8.65095488389342
C        10.86598498729790   -0.26522673313797    5.81313115295594
C        10.76962230735231   -2.13447432182949    4.31024112927926
H         8.87280302797379   -3.02507419958962    3.99418929911879
C         8.61927265685714    2.28496584182026    8.42285131170428
H        10.36301743481361    1.58143689759779    7.47791715254147
H         6.84906992614929    2.94730750900594    9.34764245881978
C        11.49565074140593   -1.14946956933387    4.95503250960569
H        11.46484736284962    0.48936629020629    6.29836013203011
H        11.26335370625655   -2.82444387986237    3.64261975254890
H         9.18738151979516    3.04162031503411    8.93918192202319
H        12.55972229404784   -1.06507814465152    4.79287411359152

