59
CSD_code = BUBCEI | q = 0 | S = 0 | Stoichiometry = C24H18CdCl2N10O4 | MND = 6
Cd        7.40660943390299   -0.00017362981000    0.00039736857470
O         7.62853325932230    1.92157685965943    0.94818316286354
O         8.19177802760268    0.70076439228564    2.72530618368582
N         4.84233546934914    4.01903269446208    3.10112265919354
N         5.49230744221199    1.06623154253710   -0.60194002395439
N         3.76962418767287    2.16545569536959    0.21060327347297
N         4.17573927914306    0.45060759638677    2.78018943524777
N         5.79797601087290   -0.54433338549664    1.67147020362563
Cl        5.17999346193996    2.48497898719454    6.72839271834141
C         7.61361327546775    1.63386204828130    2.17415913473014
C         6.67546889155658    2.48574805299130    3.03082320747718
C         5.83335333774278    3.42960093789257    2.45150512483171
H         5.96330479773428    3.70069852971673    1.41258415380975
C         4.66325782461327    3.72716467677046    4.37871607033589
H         3.84105343308097    4.22580220226178    4.87417630586135
C         5.47613787080626    2.82862992181544    5.05835839911629
C         6.49300042704713    2.18330269742474    4.37424130629762
H         7.12854222048015    1.44538861912006    4.84017701198381
C         5.08650801231335    1.96407404706163   -1.52364874092076
H         5.57682069285681    2.03085542753452   -2.47346775524919
C         4.01540736940655    2.66285763572848   -1.03772904609260
H         3.42476022772760    3.45012210171133   -1.45868981788881
C         4.69387162197040    1.19484905361718    0.43885500383832
C         4.86686432073889    0.38770770156968    1.61012020078663
C         4.72264944922799   -0.48215223574378    3.61592898115256
H         4.36388529717339   -0.62796972630883    4.61368831024166
C         5.72122718084919   -1.08863006158100    2.90596568274522
H         6.38502229624282   -1.87341666280821    3.20641180785452
H         3.07422587452458    2.51453511465320    0.84981297434647
H         3.44385972541222    1.09703822684055    3.02567401709199
O         7.18602373834670   -1.92282917826382   -0.94556704830154
O         6.61997321422189   -0.70361707810961   -2.72280964719513
N         9.97166227173505   -4.01869309468214   -3.09930651663255
N         9.32277342694869   -1.06401429225417    0.60156418585662
N        11.04424522930801   -2.16396619926940   -0.21260510165594
N        10.63509502386527   -0.45035087508706   -2.78256961553203
N         9.01340849343988    0.54430334092603   -1.67274316180240
Cl        9.63150461459915   -2.48685555495452   -6.72725480636899
C         7.19793230415577   -1.63688556583711   -2.17192830772977
C         8.13736356175433   -2.48715390408344   -3.02886567867598
C         8.98018354200864   -3.43012461839852   -2.44951307403835
H         8.85163270044911   -3.70088088768471   -1.41034099442985
C        10.15013365779188   -3.72723637260854   -4.37704538426804
H        10.97260322411231   -4.22554212213140   -4.87246983815145
C         9.33646972159304   -2.82946366254533   -5.05676391071221
C         8.31946337822226   -2.18473994513447   -4.37243919586479
H         7.68231535079443   -1.44820909889373   -4.83827060818967
C         9.72971012897922   -1.96137154953916    1.52332552418858
H         9.24083011551146   -2.02702661399680    2.47397743963655
C        10.80028551881098   -2.66036882748687    1.03648806406214
H        11.39160141445346   -3.44728216928087    1.45713460717718
C        10.11968499060986   -1.19356464176068   -0.44030317411205
C         9.94497506657199   -0.38729895984644   -1.61190894379731
C        10.08685415599437    0.48171687202692   -3.61824275160096
H        10.44462679609863    0.62717971897692   -4.61639230037294
C         9.08869077191767    1.08803142626099   -2.90755976773531
H         8.42438904461859    1.87241978177350   -3.20785588404972
H        11.73880982965687   -2.51343572465444   -0.85250305556813
H        11.36662799443931   -1.09694926460588   -3.02861836752862

