50
CSD_code = BUBCEG | q = 1 | S = 0 | Stoichiometry = C21H23ClCuN4(1+) | MND = 5
Cu        2.71261873310823    9.30685830398765    4.70899880218981
N         3.22231438076068   10.33681256189715    6.63804296816152
N         2.61978222502045    7.59560204319663    5.59412658736272
N         2.42824485953832   11.05732907279768    3.88759913682410
N         4.70258330765508    8.99300167001812    4.08906811824177
Cl        0.79010751182509    8.74959469374046    3.58823054455387
C         2.68874391266427    6.55261667329577    4.76174977398604
C         1.71806639626549    5.58322042985535    4.67585355050790
C         0.53270206416685    5.74143236253083    5.41544684162425
C         0.42827231360855    6.78903062075512    6.27981634103855
C         1.53624698154987    7.67492068472551    6.44773822769395
C         1.59017953359100    8.62060970367055    7.44361387782344
C         2.84148560583554    9.38395522891627    7.70307916179940
C         2.83450674624704   11.34082888725180    2.65695219755822
C         2.32479780148112   12.40151840941861    1.93203869722355
C         1.34965863915859   13.19335379751480    2.51894120793567
C         0.94984564943162   12.90654306679982    3.81278133929467
C         1.50478419869956   11.81872951403953    4.47513979951344
C         1.14382148360409   11.48902985642838    5.89022824855142
C         2.40772034876216   11.55147156889258    6.75763298247131
C         4.84944619420203    8.69132549651144    2.80207413375311
C         6.07396693531627    8.72022861028308    2.16029558765698
C         7.18950998431446    9.09470845588366    2.89567309242321
C         7.03467051540172    9.38481495978046    4.24017225992037
C         5.77028822664541    9.31037924766352    4.81897241257574
C         5.58852816155979    9.50464813371895    6.29562637056614
C         4.65417636471647   10.65517120704729    6.69584970596353
H         3.58983868952955    6.49428374581855    4.16601121175021
H         1.86233366744585    4.72259617936093    4.04388252629399
H        -0.27733508300442    5.04036370686762    5.28988039485319
H        -0.47219851995810    6.97549243685473    6.84271157975467
H         0.75316941265873    8.74256414684971    8.11139944105865
H         3.64213547074388    8.64277257219513    7.77018142343248
H         2.76838354360153    9.90574055505255    8.66571573737471
H         3.58973291753654   10.69385276835679    2.23617751554039
H         2.67447135305091   12.58983873324577    0.93046930695513
H         0.90999669415306   14.01789578896568    1.97970000054756
H         0.20119455197629   13.50656897172054    4.30484596314855
H         0.40745403793564   12.20217820722701    6.25955248735030
H         0.70930056586057   10.48729661806721    5.93628059072275
H         2.99402453900599   12.41940553117139    6.44516259489714
H         2.11898858785218   11.71570181144601    7.80222503907900
H         3.94833540751225    8.39603046736602    2.28048483402868
H         6.15147001518307    8.45615200690962    1.11836172197791
H         8.16309696628385    9.14347662689714    2.43289503758190
H         7.88758853235540    9.65467529668272    4.84271105978448
H         6.56508256926088    9.69838536495926    6.74084708413511
H         5.21901617527052    8.56067551641824    6.69958177776692
H         4.83826769105167   11.49184618976057    6.01766474270717
H         4.92058313956582   10.97937149718435    7.71181596203813

