78
CSD_code = BUBFAG | q = 1 | S = 0 | Stoichiometry = C26H47NOP2Rh(1+) | MND = 4
Rh        8.31522784772796    8.96622880896030   10.06846639582673
P         9.22644560580544    8.36549324352795    8.03474729051752
P         7.66079183113594    9.09822452563513   12.27993082701731
C         9.55625222069659    7.51776342761563   10.77213594782877
C         9.50215710899160    7.11135684148289   12.11953375223089
C        10.14180354430320    5.94883168525293   12.55549343898568
C        10.86394875505988    5.19704936308314   11.64471209417271
H        11.36365850503246    4.30052039846937   11.97974915959397
C        10.99486782616593    5.59032496230415   10.32371191171146
C        10.34976755273508    6.75202298021346    9.89514999813577
C        10.08094980724760    5.51720881102335   13.98973918824451
H        10.67240546813226    4.61786170980831   14.13671480961394
H         9.05707046298773    5.29850374722045   14.29389073279703
H        10.47113278422466    6.29303347867540   14.64731857117371
C        11.83907440620208    4.77688272301757    9.38929502076548
H        11.23794881541428    4.35005259746109    8.58583002803919
H        12.30933230836546    3.95722717421696    9.92542180674950
H        12.62324133331727    5.38517678180645    8.94059090240400
C        10.57450776864626    7.21148678962372    8.47879194364127
H        10.62416560260620    6.37982004211518    7.77299749523056
H        11.53288984655123    7.73841551832486    8.43543130175146
C        10.08025229078771    9.67916662794418    6.98430114498821
C         7.97590146336969    7.31268412930450    7.09054661805041
C        11.05396313026877    9.09033547842552    5.96408413299875
H        10.54829146913618    8.47655426053442    5.22568467274341
H        11.83406135747619    8.49775837026141    6.43477055270635
H        11.54021941034315    9.90820393255349    5.43461820919637
C         9.05294494646505   10.55445572004302    6.26828111848003
H         9.55151492111910   11.42280193365442    5.84103492257527
H         8.28718671701236   10.91682417263085    6.95176115169998
H         8.57254134821592   10.01780838206673    5.45390410161493
C        10.85660840266689   10.52912889521758    7.99817456582523
H        11.55537289820198    9.92789646613980    8.57906547541679
H        10.18504223437603   11.03497410462393    8.69221712989970
H        11.42926367960543   11.29397908573247    7.47753574846220
C         7.73968498506860    6.07187693508681    7.95709449023960
H         6.87035554191988    5.52789361877340    7.59268932681942
H         7.54949456767912    6.35896766306745    8.99586946479888
H         8.58760818672723    5.39223322161063    7.94143885668344
C         6.66706361690736    8.10377138925546    7.02469770634840
H         5.88819573885198    7.49516344940643    6.56873618700491
H         6.76940182190378    9.01102271146727    6.43572917748236
H         6.33843232471311    8.37636604314044    8.03353570132320
C         8.42362459245060    6.89343681009326    5.69540933042913
H         9.40601387567285    6.42532802975589    5.71350742671864
H         8.44478675062558    7.73851087416376    5.01234606974790
H         7.71779233757496    6.16653789078978    5.29617511359848
C         8.80831132050650    7.96651456333162   13.14629020063890
H         9.56754676900905    8.55211593215347   13.67377357027677
H         8.27805033863414    7.37194180102115   13.89311170370141
C         5.96197344847091    8.29583322020386   12.45912837140904
C         7.85249027407112   10.72862153692482   13.20838087570653
C         5.41276187443502    8.28391198109691   13.88068043813881
H         4.51536827602142    7.66787866727335   13.91292643823353
H         5.13617626857698    9.28284012632433   14.20792349659462
H         6.12726005070876    7.86396156308447   14.58619343080442
C         4.99394032045307    9.01339415914002   11.51556394296590
H         4.03719653349998    8.49407423414607   11.50506453513617
H         5.38866432651101    9.01683263298170   10.49480605412303
H         4.81161620681061   10.03944819701734   11.82107051694533
C         6.14386099081409    6.86278704675727   11.94901157072763
H         6.74310336756407    6.25672919363515   12.62386261362044
H         6.63095906339203    6.86997761771711   10.96703370241387
H         5.17376708143314    6.38171783896693   11.83992849736303
C         9.18787858852171   11.29118302516756   12.70473374778582
H         9.12562051560196   11.58065881439313   11.65581315943131
H         9.99677293697333   10.56769171170708   12.81148968419499
H         9.45543674285990   12.17800088849040   13.27571789421432
C         6.72532027617627   11.69776662964778   12.85537642722769
H         5.79039696445860   11.40625900315206   13.32765539481710
H         6.57254196989541   11.76452835045063   11.77978301815579
H         6.97907242425006   12.69364011219058   13.21475628127362
C         7.91233351995947   10.54729842685361   14.72522578182280
H         7.98788001282673   11.52905941495845   15.19027132068345
H         8.78073438566866    9.97293627417799   15.03712906168859
H         7.01965805771372   10.06697244304955   15.11373075189015
N         7.69293178690805   10.48004275591534    9.59171512978169
O         7.83081729680764   11.63201603249850    9.47039137596160

