80
CSD_code = BUBFEK | q = 1 | S = 0 | Stoichiometry = C27H47NO2P2Rh(1+) | MND = 5
Rh        2.01416171418459   15.42597613417908    0.44138768777405
P         2.22788403545179   17.59194465134066   -0.42120599405926
P         2.70874089932123   13.32925243388267    1.25942127448600
C         0.64685838358202   14.83219179282614   -0.79137956482775
O        -0.10345154489716   14.58646118640057   -1.61001335225142
N         0.79982772444484   15.78050976186032    1.86673480346559
O         0.83932139829294   16.83838100357253    2.36632457902170
C         3.58585712372642   16.09501985621226    1.59773161758701
C         3.78589674203468   17.47259864603692    1.79423967905681
C         4.72144772830039   17.94331133331812    2.71637708524102
C         5.49338164967877   17.02847407753603    3.41284615311206
H         6.22041578692229   17.38842701466785    4.12517897011197
C         5.37302324652824   15.66512297733424    3.20138759322959
C         4.41392254701273   15.20323848404457    2.29791748667883
C         4.90319345252674   19.41149839316906    2.95365211732126
H         5.59076585942026   19.57800678478459    3.77797577804715
H         3.95410614998008   19.88714439902639    3.19596177991757
H         5.31252909867575   19.90318049507773    2.07045899103771
C         6.26992499768357   14.71640502684694    3.93783316090454
H         6.98663800802284   15.26730598968532    4.54013639844755
H         6.82195917942834   14.08208127093570    3.24532601105541
H         5.69641106769480   14.07281405431172    4.60519130219821
C         2.97579505651540   18.46625076197541    1.00532241871115
H         3.58172684420247   19.31015303726236    0.66586636767845
H         2.16799644977835   18.86280735242124    1.62981633517129
C         3.55188308126095   17.62731979886111   -1.78016771562056
C         0.72710436057543   18.65290262933312   -0.88605722082843
C         3.11025257451004   16.71545736323394   -2.92806920234922
H         3.95651871978434   16.51747327423439   -3.58368117818191
H         2.32472159694781   17.15948670881605   -3.53043927780253
H         2.75271189006700   15.75675343158724   -2.54416035201844
C         3.86385353610230   19.02476240570313   -2.30628259492446
H         3.03006946666650   19.44858962536808   -2.85879805303497
H         4.70858287172943   18.96171136484820   -2.99094781562223
H         4.14391560455122   19.70403726551429   -1.50369254711534
C         4.82438939182668   17.03305748927602   -1.16884107068818
H         5.59662979871361   16.96619092409973   -1.93330526359297
H         4.63904035769689   16.02607825618056   -0.78681087140018
H         5.20985625184643   17.64301883965904   -0.35532982235091
C         0.26563501502413   18.35061844413231   -2.31139604468655
H        -0.71582504817592   18.79326202560024   -2.47356829667193
H         0.17611731657146   17.27814497756357   -2.47871425702249
H         0.93868231946439   18.77347749122037   -3.05178087891360
C         1.01399822198094   20.14657120051492   -0.72819186826511
H         1.17966130289663   20.41517923267843    0.31182212495437
H         0.14645657443885   20.70534614305226   -1.07546610972261
H         1.86933817428097   20.46877107265667   -1.31268616099511
C        -0.40597595311407   18.26869016064265    0.07042670787956
H        -0.67211799059851   17.21473591432992   -0.03203256478035
H        -1.29103569823227   18.85787245209844   -0.16194726218191
H        -0.14548462228135   18.46520313626027    1.10906718463902
C         4.33763059148113   13.72612294117890    2.01008776668612
H         4.49639304413245   13.12282556277730    2.90583394655778
H         5.13043785489332   13.47372933829946    1.29748186329821
C         3.12995579799830   12.07531289275872   -0.09666236843918
C         1.71121490772589   12.58131045887454    2.67718945468252
C         3.78649702470957   12.91189406621917   -1.20170022467864
H         3.99832454057497   12.28774136947831   -2.06791070528899
H         4.72790283890249   13.34973504300718   -0.87169575765218
H         3.12004282418236   13.71738653376789   -1.52724509070951
C         4.10275898923812   10.98105620002842    0.34078975869301
H         4.99446039629655   11.38350253064587    0.81457863704447
H         4.42213483741121   10.42887790012284   -0.54204064096541
H         3.64048597639153   10.27177098103733    1.01833966895144
C         1.85246903595527   11.44199742231519   -0.64436128887238
H         1.42861352635674   10.73113377657195    0.05981089255078
H         2.07603330358539   10.90066891416492   -1.56226760609606
H         1.10246364562307   12.19781820956137   -0.87393806936447
C         2.18826220818066   11.18590047825525    3.07178831331022
H         1.90266858881193   10.44198336908385    2.33317345616481
H         1.71821278149558   10.90768300545733    4.01368221391341
H         3.26618385622821   11.15042094436680    3.21698328050014
C         0.23893058553634   12.53706707704960    2.26537265473055
H        -0.12559279204005   13.53402829656383    2.02465857353221
H        -0.35612021658349   12.14703630863169    3.08891300863742
H         0.08060894194859   11.88988286438594    1.40739233595189
C         1.87388460089261   13.52483344272445    3.87230702463163
H         1.10050917437604   13.31633183173916    4.60828134191090
H         1.77553567959951   14.56814932788972    3.57304784860872
H         2.83728474300496   13.39933036684931    4.35957144372720

