48
CSD_code = BUBJAL | q = 0 | S = 0 | Stoichiometry = C10H21B9O4S3W | MND = 6
W         4.89396329699242   11.04572244896353    4.21345297151711
S         4.08045135936386   10.10518329437818    1.97097540362562
S         3.99252079405169    8.79092577401508    5.04208458332829
S         2.97797580930539    4.13549706534884    1.18070971959546
O         5.85730641324959   11.98458868437014    7.01833390087319
O         5.96321661356752   13.69681832964724    2.98688048551093
O         7.79982405171792    9.96817737952170    3.84056774376916
O         2.19493407253347   12.52193946425849    4.76707882625905
C         5.49107957433895   11.64434031395509    5.98535744528050
C         5.55956424655414   12.72515554013921    3.44532699360069
C         6.70578335472339   10.29601622334475    3.94741597476645
C         3.12834657760505   11.90988254191038    4.53272703156918
C         5.58746914825892    9.38570761473077    1.23734628109482
H         5.36477245333403    9.01097760908492    0.24199203085943
H         5.97956228925565    8.58670036884751    1.86037691436507
H         6.31056965081179   10.19395524430427    1.17152615095267
C         5.47407671135328    7.73109406957777    5.11883716753580
H         5.20504216994306    6.75953231610435    5.52398068366582
H         6.17075970585902    8.22866895916060    5.78791630694803
H         5.92153860333234    7.61597617491712    4.13561527094528
C         3.25500419897854    4.55324801642124   -0.57066102582180
H         3.25936904096953    3.63790645513651   -1.15406195936304
H         4.22230635681416    5.03796435731214   -0.64526922680269
H         2.47851065744098    5.22951736427897   -0.91237483139103
C         1.32055759308008    3.40833107192006    1.00890126781709
H         1.37646511255474    2.60415366414892    0.28199070275272
H         0.60826954217898    4.16596895942325    0.70025503704424
H         1.03844391487479    3.00712214289802    1.97591375746922
B         0.50561560844256    7.65334772160573    2.64393328249493
H        -0.66263429541228    7.76782571974753    2.66506989562046
B         1.47733980717911    8.57152878759993    1.51083748723182
H         1.15995921898303    9.42902851658909    0.77813723483437
B         1.65962924259016    8.90272331908821    3.21370118367561
H         1.51571574170198    9.97158405279617    3.67180219564880
B         1.41518323752698    7.43611772694626    4.12540732296639
H         1.05374264144906    7.49551449035968    5.23807077596866
B         1.32983438978823    6.09394116420080    2.99264073207302
H         0.72158212632178    5.10510160244642    3.19452981239725
B         1.36810281164090    6.82910782463588    1.30610024352294
H         0.78017286287847    6.31631807599903    0.41608919554915
C         3.09469321088338    8.60196723327807    2.27731896670302
C         3.05886732970913    7.99145202307178    3.69442835120875
B         2.82450002368142    6.42223765808285    3.78196209171955
H         3.37494906789220    5.75633899746833    4.57672903391971
B         2.84371784508415    5.97552776466037    1.96989651860525
B         2.88563231023169    7.60163713051592    1.06262760303743
H         3.48106617846808    7.72562954447777    0.05595938013950
H         4.01824732789598    6.11269919831663    2.08716308491599

