50
CSD_code = BUBJEO | q = 0 | S = 0 | Stoichiometry = C17H30N2Pt | MND = 4
Pt       15.31790813569225    1.88080578311596    0.58770488935363
N        16.60508944307709    0.73536786930031   -0.73988064959928
N        14.17084510494843    3.52761854022155    1.42203418037587
C        14.89709019775038    0.40345323394814    2.06486532111434
H        15.45338526453650   -0.54187215730940    1.96174613766147
H        13.83608892279748    0.09725815067057    2.05977653157949
H        15.08521075576453    0.71334342825648    3.10504830722258
C        15.68123227633945    3.26317942266761   -0.78862671260101
C        16.41343833967721    2.93296751638673   -1.92058503138094
C        16.68214265573590    3.89848530308840   -2.87814535179517
H        17.25625813702694    3.65842560781665   -3.76462245080530
C        16.20100613043105    5.18737579615347   -2.69388451892223
H        16.40516101615387    5.94197963762054   -3.44076825580541
C        15.46220919368945    5.52458725997007   -1.56846706566738
H        15.09587712926847    6.53659569792481   -1.44702222466922
C        15.20824088842912    4.55561617900798   -0.60986246541616
C        16.80773360555704    1.47924496932060   -2.02421514724209
H        17.84982331348422    1.36246953618952   -2.34943427697171
H        16.18282000872516    1.01596081515743   -2.79377211088411
C        14.47810192163945    4.79822136802204    0.68932082310621
H        13.54744228350675    5.35801263581594    0.52971037245563
H        15.11437849648537    5.42097515992108    1.32515523280008
C        16.07093497568264   -0.60392257172626   -1.03520826824719
H        16.18712281723590   -1.22009801889005   -0.14072581161218
H        16.65343720395665   -1.06756503142504   -1.84525451635362
C        14.59063132970110   -0.56397600365338   -1.38885709666441
H        14.21333241840229   -1.57571722454073   -1.51530972295637
H        14.39973361195118   -0.00801495813489   -2.30395688794541
H        14.05587902847953   -0.08913439672267   -0.56335557561958
C        17.89351288340755    0.59418876602706   -0.04132045664960
H        18.60269030242497    0.04632033749821   -0.68225096428197
H        17.71678464766498    0.00134922181904    0.86068237840293
C        18.49360727705940    1.93182124831838    0.36968088814120
H        19.36882516529539    1.76304813866531    0.99223408489035
H        17.75159340868886    2.49427977760838    0.94082841268911
H        18.78728620374375    2.52637834418620   -0.49132214075393
C        12.75397456541515    3.17781423972036    1.23148181694724
H        12.11705211387397    4.00076653547467    1.59330595715442
H        12.54740774042027    2.29255306272580    1.83946702018513
C        12.41774400623779    2.85962305495832   -0.21908412428824
H        11.39861823059301    2.48735790578721   -0.28554866744812
H        13.10431020081148    2.09048245343013   -0.58141054150466
H        12.51260695867553    3.73342187150365   -0.85804432036478
C        14.42937744781261    3.71604910311553    2.85815311556161
H        13.97775254089727    2.87675002055584    3.39241954696983
H        13.94808795842025    4.64213849552089    3.20695093425705
C        15.91846235241747    3.73217655525698    3.17659180559556
H        16.06483699483753    3.76632455102874    4.25338816637735
H        16.42825095164715    4.58419479150021    2.73305524006083
H        16.36146344353023    2.81151797712495    2.78943419354783

