60
CSD_code = BUBKAL | q = 0 | S = 0 | Stoichiometry = C24H29ClO3P2Pd | MND = 4
Pd       12.22054838992638    3.41693002836265    0.78603647301754
Cl       11.29851059496578    4.08237106071451   -1.12227807130920
P        12.87255488922785    2.81133804272905    2.83198188291536
P        10.34578887155531    4.17631969050909    3.19599030255515
O        10.12070894340433    3.64077297358159    1.85186292796939
O         9.56757671484806    3.39155691225412    4.36893381532909
O         9.79049275582236    5.67274704345440    3.24661666590220
C        13.98209036047309    3.15968347829711   -0.19425646220255
H        14.70780754771310    2.59124473159125    0.39644689116899
H        14.37831693629185    4.15880216966515   -0.40910606146165
H        13.79275184555726    2.64328715763251   -1.13786460999363
C        12.05811342009785    4.14987782841111    3.86107031753900
H        12.04827875786342    3.90729915437402    4.92719765370346
C        12.76600137110093    5.43725515666106    3.58195962016620
C        13.57875648385339    6.01518999837908    4.55176826555729
H        13.66418163595494    5.54826194585185    5.52338539905677
C        14.28219353528216    7.17591999546928    4.28027301724389
H        14.90992380654589    7.61109348082356    5.04348668359249
C        14.18459734390562    7.77096630768156    3.03410635237534
H        14.73821897825543    8.67261475668488    2.82023605207622
C        13.37271456069853    7.20665828725008    2.06325896386881
H        13.28765287138704    7.66683683552155    1.09063132190830
C        12.66525277507767    6.04503339386322    2.32837550962399
H        12.01356639361511    5.63450173090408    1.54688190953875
C        11.92606666188709    1.34145048581205    3.32277270745560
C        11.63017098428914    0.96924196873488    4.63059821228079
H        11.97487092919025    1.56858658718342    5.46205201837363
C        10.88362702058998   -0.17129849769482    4.86756647764483
H        10.65384462966206   -0.46076044856884    5.88305491524414
C        10.42606300842492   -0.93950922947117    3.80815690790452
H         9.84333714963958   -1.82823824873784    4.00161784538344
C        10.70429961012380   -0.56448179432003    2.50294982657821
H        10.33460719340643   -1.15674324359441    1.67950938442819
C        11.45174247257503    0.57319914370168    2.25935538086270
H        11.66942368850017    0.89347779983651    1.23154302846510
C        14.50041989070809    2.71928665378734    3.63768870769250
C        14.88159018577341    1.73597151018424    4.54219878369839
H        14.19641426333474    0.94254678525947    4.80282951193003
C        16.14977401890098    1.76559855014249    5.09625845845441
H        16.44413488624333    1.00118316408624    5.80054731861634
C        17.04166250516091    2.76632662745079    4.74787129012797
H        18.02829682365378    2.78500029007710    5.18642677286707
C        16.67586077813677    3.73059717330820    3.82153283081003
H        17.37785738548895    4.49802811748052    3.53152662271153
C        15.41454462998265    3.70135014340369    3.25867978785155
H        15.12642821186439    4.42721380743911    2.50791126370854
C         9.76117637819380    6.44454668143040    4.44319846266550
H         9.77186010973105    5.77932811346234    5.31361351330963
H        10.65692725133760    7.07444131958853    4.46800529492911
C         8.50756724960689    7.30280931294843    4.43799303344656
H         8.49387556784801    7.94005849729552    5.31780112210005
H         7.61963032006615    6.67568661847286    4.43739165429062
H         8.49353630437369    7.92289104598106    3.54613302975043
C         8.18555738059927    3.11011960515205    4.12951348898196
H         7.72076251490268    3.07310484200887    5.11991164381767
H         7.74441155146375    3.93138804862701    3.55374931733117
C         7.99772368987968    1.79958014718696    3.38827632287407
H         6.93674463102384    1.60909924363612    3.25031546645983
H         8.44075924264823    0.98158936109352    3.95041156143630
H         8.47953109735578    1.85856765694636    2.41624321538383

