61
CSD_code = BUBKIT | q = 1 | S = 0 | Stoichiometry = C31H26N3Pt(1+) | MND = 4
Pt       -0.81767526465350   -2.27569285269097    0.43898752780715
N        -0.17493767675401    0.10208713536010    2.28318955948554
N        -3.76450531675390   -1.49236981679712    1.16984904023832
N        -1.13828764420623   -3.83699826895125   -0.81332973258731
C        -0.38186281370571   -0.81232946443784    1.58947699301857
C        -0.07586499805059    1.18954874824108    3.08324119761368
C        -1.26016866164081    1.84684564020711    3.45783696856400
C        -1.15183299524649    2.95979578084113    4.27373650047280
H        -2.04652690251320    3.48200376143676    4.57538028634673
C         0.08771886771529    3.40604724695584    4.70308882603224
H         0.15225688225518    4.27538143103496    5.33837956686810
C         1.24364833728009    2.74549633451421    4.32267586922050
H         2.20346146703276    3.10228294911856    4.66241278016086
C         1.18794159866255    1.62660239432033    3.50704293086658
C        -2.58402934087687    1.33717892724162    2.98393705121094
H        -3.38312513444290    2.00948562876723    3.28160422927254
H        -2.78309095389805    0.35376469552710    3.40991524892622
H        -2.59077299249732    1.23934941373599    1.89841374877455
C         2.42126980910041    0.89827694312620    3.08276081680701
H         3.30542403432110    1.36614834452904    3.50530475006842
H         2.51104613805123    0.90373331919991    1.99636557667674
H         2.38429450702326   -0.13897422519554    3.41598879775486
C        -2.76489414037473   -1.85798037016246    0.70015923170829
C        -4.91636674640605   -1.06342828985614    1.73760510997710
C        -5.23557036824872   -1.51664350747250    3.02623809488227
C        -6.40934996575709   -1.05003632138964    3.59617740805972
H        -6.68183215558703   -1.38246050616837    4.58576134207091
C        -7.23060477167714   -0.17001250155888    2.91134453541858
H        -8.14121274862030    0.17936424093073    3.37203915381496
C        -6.89349977571480    0.26595589261561    1.64045045613939
H        -7.54076602548495    0.95189405830328    1.11656020981532
C        -5.73068021821143   -0.16983152706694    1.02684932755859
C        -4.34388939144769   -2.48367893849021    3.73816365265421
H        -4.57738954938796   -2.50659913668296    4.79860543212052
H        -3.29126551866722   -2.22826573581575    3.61219426418076
H        -4.48731550031737   -3.48836679541120    3.33877089911692
C        -5.34090044530010    0.27802118819105   -0.34540089203847
H        -6.03035826786223    1.03321583702304   -0.71027175532741
H        -5.35373854813919   -0.56268592970766   -1.03943906483336
H        -4.33303148001353    0.69313577942162   -0.34928762893608
C        -2.28933370207440   -4.30680679119614   -1.27274478399658
H        -3.19716715194452   -3.82106231362407   -0.93910496307135
C        -2.36487107411946   -5.38445570558870   -2.15286680680187
H        -3.33118308660377   -5.72096819603192   -2.49210038421116
C        -1.20894991691556   -6.00211275173458   -2.57612363047475
H        -1.24226087674119   -6.83805549536112   -3.25827937351781
C         0.02485555595136   -5.52979251218842   -2.10739194659675
C         1.28625308463345   -6.08354180118588   -2.47056020290150
H         1.29554877318106   -6.92138998792481   -3.15077009122812
C         2.44200860570102   -5.57333286397045   -1.97648511381329
H         3.39163424760455   -6.00238349567075   -2.25980533127235
C         2.44917631124984   -4.46694978970153   -1.07692485897149
C         3.62246654152386   -3.91106863263756   -0.54400284280234
H         4.58003528240951   -4.32765709596936   -0.81728545640318
C         3.53972990334710   -2.84590568301040    0.31799883576384
H         4.44259696260238   -2.41840059356115    0.72872159924050
C         2.30386996578142   -2.29395602614021    0.68146560230156
H         2.30394517174587   -1.45776235066280    1.36449833472412
C         1.11436078997395   -2.79594786054581    0.18728453381527
C         1.21826585224676   -3.89577385652340   -0.69844995296891
C         0.00750343145922   -4.43373769955173   -1.21905147679316

