59
CSD_code = BUBMAM | q = 0 | S = 0 | Stoichiometry = C29H21FeO7P | MND = 6
Fe        3.04494372690704    0.07395254688294   -3.04732243078001
P         4.81243448171221   -0.27190028971712   -4.36099330498225
C         1.47800465646737   -0.42087447351741   -3.67469999889536
C         2.64902097464803    1.57645202765579   -3.89416401988826
C         3.09774798410949   -1.55555248102913   -2.36613737459228
O         0.43656753747675   -0.69517197492912   -4.06637182673702
O         2.32180030971262    2.46619434247683   -4.52703606550253
O         2.94558182508438   -2.61635707064579   -1.97334274919105
C         4.07283957359296    1.13220306543955   -1.49449619334270
C         2.76154788566630    0.78674336463382   -1.07793597936819
C         5.24159977689700    0.39305878618251   -1.01147631440511
C         1.73976734406543    1.83349787682661   -1.04366684723300
O         5.24365070529016   -0.69671786647005   -0.48542347078615
O         6.36886214526448    1.10447928279076   -1.24888028472654
O         1.82460324036589    2.93586805837713   -1.55466513425828
O         0.65284254847251    1.46039265477083   -0.35017334996816
C         7.61788757896022    0.43643088214380   -1.10490230724818
C         8.24796938754301    0.29356975034469   -2.42966760744150
C        -0.41307888717586    2.43256565408696   -0.34171887993169
C        -1.56048280647170    2.22646083824904   -1.12912677861037
H         4.27225316921697    2.17457334508996   -1.72820618015023
H         2.62217878192911   -0.00097410680328   -0.34170656257419
C         4.65869254004401   -1.50974936657569   -5.69718894049079
C         5.78367914333305   -1.87116905866794   -6.43653645352007
C         5.67657867535331   -2.81016731189680   -7.44391446412919
C         4.45107851409432   -3.39782684065712   -7.72008755924419
C         3.33153023914107   -3.04398514863762   -6.98652221650642
C         3.43501152274858   -2.10258789330080   -5.97660727013707
C         5.32823464341177    1.21762796588486   -5.27578353330529
C         5.09729266425678    1.36836953542612   -6.63853080240089
C         5.41217380817982    2.56244974901089   -7.26422047610083
C         5.94639039311143    3.61213375870431   -6.53676227923358
C         6.16265906165715    3.47172629151043   -5.17437140393246
C         5.84677423874089    2.28490984707337   -4.54214510482127
C         6.37094281931251   -0.86079403514276   -3.61419530307269
C         7.63309756876085   -0.11093986195354   -3.69608700975526
C         8.89697328821377   -0.83373826625902   -3.11443529231727
C         8.71326993992206   -2.19212885147814   -2.61681545502171
C         7.47830133583144   -2.70188700980168   -2.44481310997626
C         6.31413927155234   -2.02833949740738   -2.92615609609637
H         7.44359329112041   -0.54308420349063   -0.62377308314471
H         8.24587344231017    1.04105277597338   -0.43952461843419
H        -0.00334763242230    3.30802447710368   -0.93523764636418
H        -0.56256012397368    2.76980512268723    0.69406611892813
H         6.73802748065332   -1.41272121737264   -6.21633005586694
H         6.54993251694869   -3.08764039513910   -8.01552843743925
H         4.37125047637115   -4.13327403981734   -8.50655484453131
H         2.37689968329015   -3.50161282713991   -7.19891391959264
H         2.56733604091418   -1.81864563070954   -5.39495904212032
H         4.66927344748035    0.55516808488423   -7.20796202310806
H         5.23180063670211    2.67423727957260   -8.32323434180840
H         6.18601425492707    4.54307316074764   -7.02852672686821
H         6.56976464097577    4.29286998200094   -4.60324426336266
H         6.00536117407807    2.17411228730304   -3.47814246573879
H         7.77836855997920    0.51244088149772   -4.57248209838877
H         9.84161993177015   -0.63060345629717   -3.60914598102718
H         9.59770226779148   -2.76830351094070   -2.39152403730589
H         7.34669108872581   -3.68632667903950   -2.02216978787507
H         5.36583721511352   -2.53557031036709   -2.82492631529373

