119
CSD_code = BUBMIV | q = 1 | S = 0 | Stoichiometry = C63H53P2Ru(1+) | MND = 8
Ru        7.52091822663275    5.00220532524521    5.18717430806886
P         7.82648856546319    6.06024775882696    3.14608068583591
P         9.51875300928611    3.78087249096992    5.23445209907028
C         8.23797366285271    6.51789058133112    6.06956110664562
C         8.52680133458653    7.61078751580031    6.69343221449669
C         8.80353271878803    8.97854001883205    6.06754806715268
H         9.63258078324818    8.92163815609311    5.35985660088168
H         7.91986712426327    9.31710254047916    5.52613470873981
C         9.09222755792507    9.89584665285683    7.25708162266264
H        10.14557848625809    9.79979736270154    7.53849399823938
C         8.73987435207006   11.37713728660479    7.11723334260288
H         9.63675606322185   11.99258168778545    7.18511713432455
H         8.26076763476175   11.57886922125666    6.15693659178136
C         7.75981720115554   11.76231677291905    8.25537516247983
H         7.54277559664380   12.83084227669695    8.23924667174334
C         8.33455332887313   11.31480435081065    9.56951051682975
C         8.60681447295834   12.13329444832551   10.64804467305446
H         8.42737382854322   13.19629559739919   10.58255109495531
C         9.11006495796424   11.57696067301744   11.81428466853828
H         9.32325930116715   12.21079626222324   12.66144316321881
C         9.33568101745107   10.21432368317606   11.89843649340843
H         9.72344512110955    9.78866691800854   12.81158086296962
C         9.06651854952892    9.38712197785468   10.81790253663503
H         9.23953913510909    8.32397400612870   10.89139709596611
C         8.56290396944493    9.94002288545415    9.65677802906864
C         8.24038011697674    9.22771868680798    8.37413594901411
C         6.80123311963020    9.54829727266960    8.03031947742891
C         5.78952750137104    8.66851243267126    7.69095949488102
H         5.97376786897193    7.60787227469808    7.63691504134857
C         4.52399720521259    9.15309760663927    7.39386795993947
H         3.73150345418846    8.46184848127744    7.14248994662868
C         4.26440409366471   10.51158301056756    7.41734040435763
H         3.27373185644240   10.87758525366802    7.19305545102291
C         5.28406463473064   11.40291135385170    7.71128838295524
H         5.09995896200421   12.46699634199482    7.70381135930319
C         6.54280043899300   10.92037548779735    8.01022596543235
C         8.67647894412618    7.76786031935810    8.21717547572187
H         9.75479933062462    7.71864926022773    8.42641599018480
C         8.00560439143407    6.75064040126509    9.07831698919106
H         6.95206995307604    6.88349136840662    9.27026429037431
C         8.65559430031773    5.75131594571388    9.65061800447434
H         9.71499558024899    5.60001536342188    9.51237005161546
H         8.15715959124932    5.05009897304446   10.29807576409884
C         6.04894110072240    4.14823017042740    6.68359667298399
H         6.09772647672389    4.06156401515187    7.76067729106213
C         5.38803473514608    5.17621851906879    5.96440549224676
H         4.86153851439704    6.01324646492162    6.40003138715455
C         5.35725101810030    4.80048806398497    4.60098325340487
H         4.80742663205391    5.31033699882274    3.81977915221062
C         5.98119183341740    3.52733116368794    4.47038952652149
H         5.95928595460618    2.90837939291605    3.58396204602987
C         6.38900562435826    3.12360414554606    5.75649460263739
H         6.76757860571214    2.14757798860688    6.03106020458183
C         7.21979822843532    7.77945131965394    3.08579865471272
C         6.30002995413426    8.23551971703813    4.02395467795927
H         5.99072480677757    7.58516717082071    4.83081448598813
C         5.80044854921064    9.52456417605366    3.94452854343276
H         5.09428924600440    9.87136139417495    4.68465011330634
C         6.21901975383747   10.36595353935572    2.92716704199439
H         5.83328543647278   11.37194935811419    2.86583157119328
C         7.13552227832400    9.91627634375677    1.98859569414474
H         7.46196352004749   10.57181329015548    1.19566612254574
C         7.63396907222637    8.62865031039758    2.06171438861391
H         8.34557072228523    8.27980215381256    1.32697999279458
C         6.91717095121364    5.30223444502022    1.76277427165766
C         5.77006183069511    5.88156565477148    1.22814718503542
H         5.41813310275365    6.83434884415928    1.59931999194391
C         5.08291082987222    5.24017171626868    0.21205901215157
H         4.19641153565082    5.69577480021019   -0.20268955946116
C         5.52688110661785    4.02035735567130   -0.27155657992038
H         4.98594523615154    3.52459286929291   -1.06280470537053
C         6.66594070639362    3.43751117715728    0.26211157002232
H         7.01752846680959    2.48708020516023   -0.11077122250758
C         7.35590010307257    4.07219701058276    1.27732902251583
H         8.24454459583722    3.62557923675793    1.69757622904077
C         9.51976089965978    6.24747426099433    2.51194379880790
C         9.88007011512714    6.08012403477272    1.17899983565629
H         9.14115014221184    5.79772856059744    0.44274573295575
C        11.19728222705341    6.27339510076716    0.79823119723250
H        11.47794622039188    6.14090913348380   -0.23578679313573
C        12.15264160617419    6.63634514637174    1.73395922859057
H        13.17785541506123    6.77972323013823    1.42881456692718
C        11.79242358630618    6.81755931403350    3.06103266082376
H        12.53433018288995    7.10070629407664    3.79264965038767
C        10.47955790930507    6.62386302661806    3.44748316296493
H        10.17078385020579    6.75209835884945    4.47808151236428
C         9.73760326913416    2.81743191646714    3.70611830925916
C         8.91845609362821    1.71249887237213    3.47538018332234
H         8.20203337560753    1.40797802784364    4.22586239729228
C         9.02791434911438    0.99290550235490    2.29959593574521
H         8.39786120843319    0.13117494005974    2.13690644277204
C         9.94537357882777    1.37665526167698    1.33371532179161
H        10.03296583196401    0.81313850676475    0.41753818369768
C        10.74865279568074    2.48548102341639    1.54715491807013
H        11.46033564067896    2.79200274417666    0.79563300013604
C        10.64599975408529    3.20701175663512    2.72391876003255
H        11.27567997163067    4.06908436695046    2.88518213222240
C         9.48613104621772    2.51484347263293    6.55197823182954
C         9.02980609298006    2.92762395157793    7.80042186395243
H         8.65801332526272    3.94094565526033    7.91489617825353
C         9.05685736284476    2.05873035201779    8.87460627082498
H         8.69935278796352    2.38181302874626    9.84071870322884
C         9.54517052787196    0.77205921638978    8.71066643465098
H         9.56053997978524    0.08896028487642    9.54591030950467
C        10.02231265038724    0.36609236067939    7.47544506375275
H        10.41503126591413   -0.63154175379477    7.34934125856236
C        10.00554616904691    1.23441046977094    6.39753146830409
H        10.39055189720438    0.90940233361325    5.44182929728454
C        11.20273073774503    4.36252105690051    5.64573089285656
C        11.34554135640163    5.46513953944483    6.48047363764878
H        10.45978909932549    6.00013714568925    6.78981417092241
C        12.60008919115484    5.86199087146605    6.90588642941242
H        12.70483319868278    6.72395408278831    7.54820342513846
C        13.72185292561029    5.15043886753637    6.51361082372766
H        14.70243359971621    5.46074480524645    6.84057119335756
C        13.58042482212029    4.02732008641065    5.71505498767247
H        14.45021160831399    3.45602444444575    5.42793716732817
C        12.32757360764979    3.62380882539134    5.29026687684665
H        12.23066085393852    2.73308622713752    4.68736959906008

