45
CSD_code = BUBVAX | q = 0 | S = 0 | Stoichiometry = C21H14AgN3O6 | MND = 4
Ag        0.87761054119078   14.69882502118087   10.21775437074046
O         2.27762506003176   12.96787655155047   10.54532680425529
O         2.31907133173108   11.20100023542940    9.20007238849820
O         1.51633742767477    8.89999086518133    9.83888755975541
H         1.87092396478077    9.77734000581323    9.44987112126456
O         0.01458804049902    8.13089449352306   11.25912459219667
O        -4.17874086684248   10.14519746803673   11.69501443957046
H        -5.11144793594196   10.13488402414840   11.96092575354623
O        -4.50381746294963   12.34649626459738   11.66928978525826
N        -0.44040921019013   12.75728097279652   10.49007020292234
N         1.10573624257257   16.97943178504119   10.02794151608565
N         2.01006089811351   15.17198983321623    8.17085056654149
C        -2.44206790925943   14.01458808485896   10.85614338104484
H        -2.83235037805567   14.20405657077665   11.85403644038052
H        -3.29483813494587   14.00114715804192   10.18066386576072
H        -1.74797432214597   14.81313276459203   10.56479540186592
C        -1.72503532976358   12.71113635651998   10.82062757668945
C        -2.33966666258383   11.48492144059391   11.11968433874144
C        -1.56589579393980   10.33323610008021   11.04212982785193
H        -1.98916794645211    9.36911721811537   11.28299099140548
C        -0.22864974524507   10.38994644075019   10.65893727747807
C         0.31089383397899   11.65578995889692   10.40489500568002
C         1.77754415238915   11.96075793455276   10.01939153823623
C         0.47392508760400    9.04179326635945   10.61273877699191
C        -3.76578362682456   11.40401716557285   11.51545355295240
C         0.63669185662664   17.87060216140246   10.87751543807069
H        -0.14898680670401   17.53445707081639   11.54079864783308
C         1.09547358908903   19.18768408233528   10.94524333337400
H         0.66853595082724   19.86893185179741   11.66383829087394
C         2.09576510292053   19.58312994543794   10.09138480394013
H         2.49003709243414   20.58860000233321   10.11644382105671
C         2.61717778496421   18.65769624450167    9.17234535031399
C         3.67862350700108   18.99023807216876    8.28363748970220
H         4.07181961015779   19.99562939563802    8.31568547692102
C         4.19738517000892   18.06475392226723    7.44314827930039
H         5.02217320041376   18.30855311526375    6.78978160140087
C         3.67082978009622   16.74308321546848    7.39616133819291
C         4.19427226844647   15.75314123598739    6.54599083144696
H         5.03333573639058   15.99082852987295    5.90797779401511
C         3.62930506297809   14.50243493572257    6.54817506309389
H         4.01339766766788   13.71064174101669    5.92559232086237
C         2.52000862564270   14.26461371403716    7.36720280017377
H         2.03394604317300   13.29909317319968    7.36120035694653
C         2.58558445068673   16.38646739785535    8.22829846566446
C         2.07425305156586   17.35127221221892    9.16686142097689

