75
CSD_code = BUBYIH | q = 0 | S = 0 | Stoichiometry = C24H46Cl2P2Pt | MND = 4
Pt       19.07879466630792    8.11904460015559   -0.00096398830620
P        17.70277330662693    6.56753791644722    0.96818224474751
C        16.22909518447559    7.19706207479558    1.87986884596693
H        15.79182222452857    8.01489833222331    1.29678462285328
C        18.06443628425369    6.83416748174536    3.57415704508686
H        18.96105535457057    7.42514419740756    3.76926379343333
H        17.80605610637889    6.33643637456537    4.50969570737123
C        16.40295801238882    4.04553972489895    2.69967823554942
H        16.16202576767435    3.82628134294957    1.65950361348813
H        16.22959970355161    3.12080782271985    3.25769826184849
C        15.10839957453061    6.21110488361805    2.20684283115617
H        14.27934746381168    6.79816453182366    2.61481305465573
H        14.74581734375461    5.75539728120125    1.28134497245127
C        18.37998326219361    5.77718317537659    2.49188775248728
H        19.46611855680108    5.70579726620763    2.36768952415456
C        17.24956940453917    5.35053234902780   -0.33243380409379
H        18.06822948727029    4.62767123594586   -0.39641549872291
H        16.32289271936371    4.82307600613537   -0.10540876053896
C        16.81424064709465    5.96389276679687   -4.14861717015901
H        16.02164664115777    6.70819739755986   -4.11531532271786
H        16.62462592710526    5.29557394834973   -4.98515570639992
H        17.75736743118988    6.47619761595853   -4.32601586973188
C        17.89528019386828    4.36318434814287    2.83225705560069
H        18.20384873058084    4.16636064230109    3.86371990192392
H        18.43802430886902    3.65518480018937    2.20066231272038
C        16.93070600474252    7.77662059082824    3.11448881474279
H        17.35945782725364    8.74040121450829    2.82850772399940
H        16.21503041253111    7.96076597791668    3.91685321475830
C        17.11588305996966    6.11296858421031   -1.65283912282148
H        18.04316601934817    6.68066698178648   -1.82706354848662
H        16.29804920403743    6.83525731112724   -1.57429627385800
C        16.87242968270039    5.18634826890780   -2.83948134445170
H        17.67736495104044    4.44938761410699   -2.89079159587284
H        15.93375531711207    4.64511109092817   -2.69426242956205
C        15.43070211726788    5.10636346970754    3.21271469474389
H        15.79928403154577    5.53691866779522    4.14224250358257
H        14.48563683473182    4.60741965313484    3.44708675631478
Cl       20.66702197751631    6.42554795099664   -0.03876953617240
P        20.45526168623222    9.67295292263047   -0.96806928874459
C        21.92880043786720    9.04305782089116   -1.87979901139000
H        22.36601240550391    8.22514022666597   -1.29678330507568
C        20.09349489424636    9.40619064440793   -3.57407088215686
H        19.19681373041574    8.81530383907565   -3.76914483612927
H        20.35191816045872    9.90384641821131   -4.50963189549739
C        21.75542831314896   12.19459245186899   -2.69967847283658
H        21.99644299810706   12.41382745574414   -1.65951719154488
H        21.92889131384806   13.11929231306381   -3.25771958450173
C        23.04962579886353   10.02885195744959   -2.20685853739644
H        23.87857017357178    9.44166779901430   -2.61486785996691
H        23.41234816979615   10.48454083798689   -1.28140303742531
C        19.77811574534151   10.46325128869505   -2.49182108742205
H        18.69199778646386   10.53480006131872   -2.36756828849853
C        20.90881359650510   10.88990641967041    0.33247775237902
H        20.09022639077607   11.61285403276263    0.39643959544848
H        21.83557757090373   11.41719070728625    0.10540850114878
C        21.34410457656949   10.27630465257162    4.14861566099696
H        22.13660470291515    9.53181543933371    4.11528394726346
H        21.53387118048162   10.94459500776316    4.98516176246749
H        20.40080053561544    9.76421456225832    4.32602517867676
C        20.26305477538821   11.87715620938435   -2.83219216301338
H        19.95448723859118   12.07398077001343   -3.86365265724012
H        19.72041714370828   12.58524173477762   -2.20060484383751
C        21.22711473394381    8.46360828633250   -3.11442137762629
H        20.79826906684211    7.49987475911007   -2.82843697216785
H        21.94275462366735    8.27937474194701   -3.91679480870384
C        21.04236468230337   10.12740601129744    1.65286200879249
H        20.11496775503174    9.55985138221890    1.82706578947150
H        21.86006810302151    9.40496129387150    1.57432560001871
C        21.28599827796801   11.05397548837767    2.83950883168922
H        20.48118039959687   11.79109173789589    2.89079689307629
H        22.22479671447896   11.59501738695892    2.69425627519604
C        22.72749376214321   11.13361744173609   -3.21275828614428
H        22.35880021572707   10.70310111743174   -4.14225906496406
H        23.67263539581387   11.63239562880761   -3.44717999892942
Cl       17.49188120144053    9.81443365867595    0.03889214286003

