97
CSD_code = BUCFOV | q = 0 | S = 0 | Stoichiometry = C35H56N3OSiY | MND = 5
Y         7.23396029579307    6.39105122928411   11.98587874880791
Si        5.91281003187180    3.22224980604410   13.00501330115922
O         5.85105295971758    8.64548025622477   11.49832564724837
N         7.83748283564220    7.14890634737691   14.18837245802877
N         9.33715123282564    5.53385962337408   12.26063112574723
N         8.19088577574509    6.75428577230534    9.97948152813484
C         8.76024472296913    6.92199356166089   16.46383463822683
H         9.79513505154114    7.09241707483404   16.75548361548564
H         8.37367674247515    6.10844532603987   17.07711517848836
H         8.18588523058841    7.82284757849606   16.66607789651998
C         8.67768832909051    6.53002575924382   15.00182955932816
C         9.52924237191667    5.48773480097786   14.63051641537109
H        10.06405387522668    5.02607671278998   15.44893304949660
C         9.88091353562999    5.04016858219020   13.34688015073587
C        10.97971496711943    4.00236456954548   13.27605962099283
H        10.72486853713001    3.21857874748176   12.56462359707801
H        11.14366843377933    3.55057184037373   14.24995549414525
H        11.91353364798036    4.46327252736754   12.95231911967210
C         9.85504385108920    5.21479349326593   10.94280227997137
H         9.33915558148543    4.33430747761504   10.52772366287561
H        10.93357341867691    5.01132053884265   10.95670803198237
C         9.60933807533329    6.43115022159070   10.03021670052639
H        10.23852426681367    7.23936500039566   10.43815799919434
H         9.97720805010478    6.18946850814915    9.02123157233895
C         7.21621937468864    8.35701424972559   14.57362861579741
C         5.87008111644559    8.38980643406562   14.97931393945179
C         5.25920276122844    9.61931458904050   15.18256055014801
H         4.22644601792808    9.65711602998749   15.49508959668854
C         5.95209087131737   10.80096293660934   15.00485264223397
H         5.45571224998122   11.74974195080135   15.14872793944272
C         7.29589735986312   10.76367295874628   14.67822079493330
H         7.83855781783081   11.69139325376161   14.58228031059160
C         7.95088542523990    9.55773177368408   14.48694197467380
C         5.11916541358912    7.11162731266348   15.28341740272461
H         5.67358385486678    6.27344153404038   14.84509962096861
C         5.05350797024348    6.90527706700623   16.80123289548623
H         4.52493091186150    7.73060782955790   17.27470802182387
H         6.04942085072909    6.84750590131864   17.22968905552309
H         4.52667132755246    5.98120866554440   17.03005203213787
C         3.69884776967091    7.10137935600524   14.71517633389913
H         3.06025647848561    7.81083156334368   15.23666978333570
H         3.26289822811548    6.11142445210343   14.83524652767833
H         3.70388913653915    7.35310456979595   13.65786195029827
C         9.43161227437513    9.51230165104471   14.17422240666270
H         9.83056467406542    8.57144780622971   14.56451335295747
C         9.64634634092227    9.50545438889482   12.65925746284479
H         9.11107483712950    8.65786272135265   12.21859291373557
H        10.70706805122678    9.40953111081524   12.43201779302823
H         9.27863144195243   10.43251605456063   12.22105267241572
C        10.21974076027108   10.65119842956249   14.82124202446454
H        11.28621977347174   10.45500085530928   14.73133271472557
H         9.97397823963916   10.73741187327617   15.87733455054158
H        10.01561241313827   11.60288411936583   14.33620575677654
C         7.74780672483237    7.52948982430990    8.92771768916643
C         6.49988434469556    7.18405903315729    8.33976852957672
C         5.95220936316733    7.93252636018257    7.31556618668864
H         5.00256922586152    7.63046607450252    6.89197408568911
C         6.61082557501147    9.03435569262833    6.80129856717618
H         6.18215402774219    9.61368853421416    5.99722859988860
C         7.84180928973888    9.36598048362128    7.33428916915023
H         8.37066222116391   10.22244815478255    6.93581282190709
C         8.42349606097420    8.65196581229943    8.37094013545021
C         5.75339599584984    5.96206825053708    8.79455219116760
H         5.07832536039708    6.20585366342843    9.61991976621642
H         6.45141914167281    5.18993841280276    9.12439871035651
H         5.15059754153587    5.56770445372934    7.97707802328079
C         9.73988100527960    9.18441467700393    8.87793900438657
H        10.57290806090776    8.54672901882622    8.58459889478513
H         9.74319019989740    9.28038287874572    9.96096559343879
H         9.91847291821701   10.17227319223439    8.45488021897199
C         5.44428148639074    4.87271126286165   12.21995263491849
H         4.63095926647725    5.31060756956693   12.80853464690104
H         4.99357581632733    4.63331888916324   11.24903202214525
C         7.32052587706093    2.42862189211938   11.97459317608228
H         7.16453212288406    2.58470343896261   10.91020499071806
H         7.38812045378534    1.35812808137252   12.14157457397315
H         8.27858736839843    2.86384792760228   12.24132020598973
C         4.47466824886473    1.95056002793309   13.06966653210223
H         3.63107158713557    2.33996787061798   13.63120597688556
H         4.77837520736223    1.02074778094936   13.54067791520696
H         4.11848107662928    1.71092042111920   12.07265882516159
C         6.53327920522050    3.42961536875259   14.80393777030626
H         7.35521504488304    4.13897784196505   14.85308942455020
H         6.88949542177556    2.48543383874811   15.20480158284279
H         5.74371537568023    3.78191840936675   15.46034063965269
C         4.44425665164416    8.81999303463127   11.36553411212745
H         3.97600993656831    7.83446356933037   11.35399978745702
H         4.06655193005673    9.40289975792676   12.21871674445125
C         4.26923894747459    9.59460844040003   10.06224440747407
H         3.31888246575003   10.12084882684823   10.01877671619391
H         4.34361413837282    8.91454607680899    9.21456811907001
C         5.47609131726817   10.53869747640473   10.08148647322600
H         5.19244173930939   11.53894595865255   10.40535225419318
H         5.93698388057076   10.60520811258631    9.09852622410769
C         6.43241956508856    9.89079704818135   11.09906547658920
H         7.40576353982233    9.67180898642298   10.66164893519329
H         6.55542971036863   10.52435078011080   11.98754861663397

