51
CSD_code = BUCGAH | q = 1 | S = 0 | Stoichiometry = C24H22NOPReS(1+) | MND = 9
H         1.04193268689095    7.19281196492009   -1.10932667283717
H         0.11248612939170    5.72866579380835   -1.66224344143870
H         5.28474539394150    5.10063363885771   -0.05682548075621
H         7.26064473311119    5.30561221513269   -1.50362875897117
H         7.77516671020239    3.54289448760812   -3.14799299288467
H         6.31206907453293    1.56630719019558   -3.33750893651739
H         4.33161645515182    1.34924121907217   -1.89460012884868
H         5.93268729648615    2.53343154953699    1.34802875572536
H         6.62911557557205    1.69952431621071    3.56223648270657
H         4.93592391000336    1.11923700149117    5.25518629467386
H         2.53597807386549    1.36653169454195    4.74507069134843
H         1.82770653622649    2.21678740432450    2.52670505913235
H         3.13996543533073    0.14572258081144    0.74870296609481
H         1.81405596160108   -1.66570715488862   -0.25795507132415
H         0.19406450562149   -1.16929489799901   -2.04843031597290
H        -0.09423993589353    1.14577809606860   -2.84796222309042
H         1.23101148696919    2.97396977604276   -1.84515379476246
H         1.59459338495818    8.23975935778327    1.02913623240114
H         4.10572521369353    7.42584169076458    0.62326217096028
H         4.55130980950687    5.30748385268916    2.21663608126077
H         2.30250344299138    4.80980843559843    3.56944246438379
H         0.46135847697630    6.62430807307547    2.83068005333604
Re        1.87578111055674    5.05733614055726    0.53732721528167
S         2.48681539186159    5.41846075329044   -1.82327059198766
P         3.24677209349155    3.02746550267589    0.20979301622159
O        -0.47892295013559    3.35015848664931    0.63162913099369
N         0.46021521825307    4.02826888495098    0.58902212930533
C         1.03567291753773    6.11531968715915   -1.23423850192480
C         2.03614146225098    7.34501564460041    1.43545156425344
C         3.37298561602516    6.91048163482468    1.22401740916523
C         3.60532352673365    5.79584672840876    2.04093202708268
C         2.38694940936671    5.49091505677281    2.73628702157256
C         1.43190086841446    6.49085578544567    2.38182256834644
C         4.68488301038375    3.20574450405154   -0.87378227566626
C         5.51219777494780    4.32255297739037   -0.77048609467032
C         6.62206434040354    4.43933094325161   -1.58515516180416
C         6.91167498593216    3.44671493486897   -2.50847553376277
C         6.08932625916108    2.33687051711148   -2.61581826312125
C         4.97484347798525    2.21207509293084   -1.80587142116519
C         3.83782371829608    2.42476721818716    1.80907263529576
C         5.19145867179970    2.28444294710145    2.09456818063684
C         5.57966369793513    1.81261832924405    3.33778176000829
C         4.62681003346854    1.48558605255415    4.28866435160052
C         3.27527284639128    1.62652261273441    4.00317207113801
C         2.87754900609069    2.10004899773933    2.76826661730129
C         2.26028648689007    1.67416545740015   -0.48142671479652
C         2.42987355400350    0.36539732728881   -0.03566528227666
C         1.68420534559116   -0.65207595076359   -0.60443359619648
C         0.77562056022145   -0.37220080055527   -1.61232473862378
C         0.61198832420420    0.92954513703404   -2.06188020554422
C         1.35010288480658    1.95412111144962   -1.50033875128211

