106
CSD_code = BUCJIT | q = 0 | S = 0 | Stoichiometry = C53H44ClN5P2Ru | MND = 6
Ru        1.55457593129614   16.51000106844237    2.87607770130742
Cl        0.12487317413612   15.93457496044436    1.03844898181409
P         0.55957299002614   18.52371203787035    3.50117317697921
P         2.29511254190051   14.40843026290033    2.20988632228084
N         2.95257402247912   17.59932314453114    1.79880897683609
N         4.91659567548796   18.71699474496828    2.06915860975952
N         2.88841155197874   16.69614972411675    4.23487603274537
N         1.43461199049184   15.58418682882536    5.57137010959502
N         0.61563043498131   15.63181754790493    4.48388216540799
C         3.20095462077421   18.26383944008836    0.64556046433836
C         2.49810993718939   18.34464335625128   -0.55873377974738
H         1.55785915172323   17.82657266932006   -0.68918596195779
C         3.03710146662997   19.12042462872396   -1.55554071938182
H         2.51884655918772   19.20644271149501   -2.50052780443451
C         4.24516716640251   19.81333596851632   -1.38162575594617
H         4.62133766675414   20.41232396960428   -2.19946257355701
C         4.95324803205343   19.74893628102786   -0.20671540832822
H         5.88177662731978   20.28172534981397   -0.07055163578346
C         4.43673258060704   18.96403913830850    0.82428275874106
C         4.00733019497243   17.91437602916523    2.61427742650145
C         4.02944602143467   17.34548614842311    3.93223037947161
C         5.07679178817755   17.40482591068797    4.84782077915554
H         5.97119118738466   17.94125052998191    4.58064727307058
C         4.93068855346048   16.75191445118333    6.05714238403750
H         5.73481925683597   16.74934711669959    6.77622152919139
C         3.74297067219711   16.09232830753439    6.36378385877481
H         3.63922164599084   15.58390570574189    7.30362296569535
C         2.71940964478999   16.11317897308952    5.42711110168652
C         0.75277377825931   15.09204241716959    6.64844887674438
C        -0.51994816022687   14.82025122127373    6.21018445681437
H        -1.32383608658106   14.41695393585532    6.79114520171204
C        -0.56604856253293   15.16980525721965    4.84937528969444
C         1.30053299896140   14.90826365771048    8.01565043346042
H         0.49723295197787   14.57354210341509    8.66716974139952
H         1.69544029765025   15.84554893767798    8.40597386537424
H         2.08873284857165   14.15518932674276    8.03185050534516
C        -1.70980141470029   15.05867698901441    3.91223550152272
H        -1.35870749306043   15.16508618499960    2.88696973414171
H        -2.44330270170133   15.83939312540421    4.11355466310250
H        -2.19556002360306   14.09194799596894    4.02720116722189
C         1.29967707978846   20.05588942684878    2.84229908868194
C         1.98673276025109   21.03774639757845    3.54196859273867
H         2.11201248910495   20.97469038428163    4.61256021068627
C         2.50599577138055   22.12730593130983    2.86289893407336
H         3.04913851037049   22.88390770415792    3.41074245808493
C         2.33553840980990   22.25080909622830    1.49533560602277
H         2.75476479341031   23.09808664918815    0.97347673809669
C         1.62022625670153   21.29074245815185    0.79839084762471
H         1.47555628061959   21.38637835008505   -0.26707022721184
C         1.10689659508542   20.19897375470228    1.46850085802722
H         0.54573212836475   19.43727456988771    0.94045353915302
C        -1.18087493495627   18.98973556316442    3.19763633147738
C        -1.99333590701672   18.25517791764255    2.34556817545455
H        -1.59975878113017   17.37618277208278    1.85435827838226
C        -3.29612825366107   18.66708167638355    2.11242283470907
H        -3.92555283533816   18.09228926030440    1.44928430173187
C        -3.78636832998288   19.80911644683835    2.72008806758397
H        -4.80232982542387   20.12813934797277    2.53772313268910
C        -2.96910971443951   20.55414640968627    3.55823633628574
H        -3.34660305269597   21.45332219216634    4.02363172093057
C        -1.67007566081812   20.15136013905009    3.79400139482554
H        -1.02701827860394   20.73350760740772    4.44129940122891
C         0.62953105420317   18.64659702659048    5.32299468904364
C        -0.49171330353129   18.31633229682287    6.08244861214164
H        -1.42677468012038   18.09828847607281    5.58555199605065
C        -0.41732162711119   18.26693589570400    7.46169838243499
H        -1.29541120598498   18.01215850002682    8.03694501508344
C         0.77882932161884   18.53993252280317    8.10544352444822
H         0.83364569892383   18.50902316834202    9.18401280694545
C         1.90513290245831   18.84590702937156    7.36022866791235
H         2.84607103261127   19.04542118486032    7.85306110402204
C         1.83616194417421   18.88581640893927    5.97878454233014
H         2.73077155981367   19.09650998192155    5.40829318889921
C         1.07313199599404   13.13452201819810    2.65738316203542
C         0.94232417699837   12.70692610133323    3.97677006132509
H         1.61542258556417   13.08132957690819    4.73779843794147
C        -0.04362678022846   11.80216359742019    4.32514786566250
H        -0.12924382182738   11.47096922483677    5.35060742016810
C        -0.92382165299733   11.33186309118111    3.36500711724908
H        -1.69491179063504   10.62647049582283    3.63893414254007
C        -0.81936237745800   11.77657560950681    2.05707237086494
H        -1.51518216328710   11.42495542966139    1.30978106553040
C         0.17001954263460   12.67488630672871    1.70243998294806
H         0.23728179690264   13.03868344780693    0.68744298127295
C         3.87208510404232   13.83396094599512    2.95363010945481
C         4.09182750853541   12.66085427737991    3.66400434478411
H         3.29015420706616   11.95395850051667    3.82089144056525
C         5.35332961008908   12.37750396317163    4.16017655308776
H         5.51383186827046   11.46347187581646    4.71436534666865
C         6.40602154466731   13.25031827851735    3.94593725386518
H         7.38450543128127   13.02557653625858    4.34418260290894
C         6.20488398718003   14.40098139980763    3.20070581611810
H         7.02476220501839   15.07569899335340    3.00446058470787
C         4.94834985621393   14.68399467609092    2.70366888190251
H         4.79162058611798   15.56723973185792    2.09676600629374
C         2.72911692264937   13.94134269676266    0.50376989009454
C         2.97528820889400   12.60071516022505    0.21419356524812
H         2.85446511423073   11.85154949329819    0.98575629364023
C         3.36694085934526   12.23336899336884   -1.05782558880789
H         3.54973770887827   11.19252726536063   -1.28374103136883
C         3.52939701725267   13.19688635646982   -2.04255663235695
H         3.83559101942271   12.90357616842235   -3.03616573473990
C         3.30309575393823   14.53023486756863   -1.75064262217047
H         3.43448375522940   15.28569567870448   -2.51113690766503
C         2.90634526428681   14.90342332421003   -0.47797584983287
H         2.72212723774162   15.94050121280232   -0.24671687528781

