80
CSD_code = BUCJUF | q = 1 | S = 0 | Stoichiometry = C36H34ClN5OPRuS(1+) | MND = 6
Ru        2.98998453791614    4.07224665550573    5.05049476748237
P         2.28175913919744    4.77617069051654    2.94033877862208
S         3.77099441653480    3.44827056343214    7.13006337966581
Cl        5.19085422239281    3.51656431780029    4.47694023070530
O         2.70083969052154    3.56665204873301    8.11413715471679
N         1.27200786995382    4.37331638149516    5.80988304700124
N         3.18050939513248    6.03552608139504    5.60103695579146
N         2.16447747634687    7.81738788569836    6.47207728262613
N         2.22378133395968    2.21744394615571    4.83458306465416
N         0.98339232056053    2.16949437675791    5.37094084013515
C         0.46041066348618    3.32406889674204    5.94417581058119
C        -0.75582335591974    3.41859547364616    6.60146671968863
H        -1.40351363022551    2.56536002578481    6.70734330829347
C        -1.10060007795518    4.65129279786142    7.14054562231312
H        -2.03549010853359    4.76115165222312    7.66524591137160
C        -0.23959238830596    5.73187479995573    7.03218895402505
H        -0.50148443643567    6.66998830713325    7.48696469755896
C         0.96707197085192    5.56661878291630    6.35664775169480
C         2.05491131770518    6.49692730406108    6.15813859414026
C         4.06621332397543    7.07152206767312    5.56683356907229
C         3.43137325563336    8.21180861613918    6.11009357516315
C         4.09946527403786    9.42723262463224    6.20119478025860
H         3.63261597594441   10.30700884303577    6.61486411416414
C         5.40094756470319    9.46439835818047    5.74780792698461
H         5.94931898859251   10.39162935837277    5.80397588365046
C         6.03803795415430    8.33034185361337    5.22983059342661
H         7.06348359087982    8.41182641775777    4.90631736499585
C         5.39061379473839    7.12039312043681    5.13408850171727
H         5.87413460978283    6.23336246960950    4.75812120752089
C         0.47993454355083    0.91307439746256    5.27915147591581
H        -0.49253482034529    0.65588165356220    5.64446166757597
C         1.43189472639121    0.14036687800307    4.66671115585345
H         1.37129548787753   -0.90141927784516    4.43189834714038
C         2.50813034531187    1.00312663102854    4.40936808176334
H         3.45210646833537    0.78542071491560    3.94761173220370
C         1.16183986073095    8.66887807255818    7.05062890194723
H         0.22738014611930    8.58299065639502    6.49480686670483
H         1.50712469867155    9.69907261822672    6.99745543030860
H         0.99129029726900    8.41304954896482    8.09860677159949
C         3.24775444518526    5.95918096844194    1.95635823723234
C         2.62426755186551    6.75744421340767    0.99906534769330
H         1.55109148407313    6.71899226911128    0.87354665304980
C         3.38562647541265    7.59763241159999    0.20905972673882
H         2.90347275482293    8.21980302029943   -0.52993879725939
C         4.76399305663690    7.63674345610398    0.35755721271234
H         5.35171321736205    8.29606355467213   -0.26283388134058
C         5.38564697771538    6.82010852439674    1.28703671204352
H         6.46000926984207    6.83405301281407    1.38832007711292
C         4.63183778695533    5.97502585786949    2.08262870396858
H         5.10691706851208    5.31150021327762    2.79005234095430
C         2.02672336215324    3.48146917630280    1.69314316851641
C         3.04011985959338    2.52938203008147    1.60205819176172
H         3.87865978250296    2.58959181640297    2.28552160726326
C         2.97578612774542    1.54367538067893    0.63528611510302
H         3.76108046876299    0.80671306654791    0.56198535201231
C         1.90625131169901    1.50928504925818   -0.24606368644665
H         1.85279287272429    0.73901544054237   -1.00012558787100
C         0.91201156154549    2.47154055214101   -0.17223785228906
H         0.09021411010220    2.45370827186539   -0.87219699452200
C         0.97025286870858    3.46522584463386    0.78933227907816
H         0.20103166634043    4.22311080761802    0.83128413616497
C         0.67764870766033    5.59297270588097    3.19256307771648
C         0.62570985089025    6.96060133392103    3.45103651003906
H         1.52468603463756    7.55532155614450    3.35340678731415
C        -0.57199958638836    7.55580523498753    3.80632264274615
H        -0.61235726181353    8.62192112184972    3.97636838169528
C        -1.71976239691263    6.79019906393414    3.93280774287953
H        -2.65348911976049    7.25638291893407    4.20744743698645
C        -1.66949774404620    5.42440866268115    3.70203221042945
H        -2.56325127528657    4.82704643546652    3.80208351728205
C        -0.47668460629510    4.82613402563297    3.33988848404449
H        -0.43385848904011    3.75898908709073    3.15994280429677
C         4.48131878694277    1.78285582292534    7.28388488669644
H         4.85900024695383    1.65879959680056    8.29193428824861
H         5.27356234768026    1.69752108446141    6.54736948738670
H         3.69749800248018    1.05701286790573    7.08976029088002
C         5.20160512008525    4.38045739931855    7.74365894636531
H         4.92795181984765    5.42966872570721    7.79647555194770
H         6.01054727086814    4.23547202826968    7.03559558396233
H         5.45886176701179    4.01074877903398    8.72944148822045

