56
CSD_code = BUCMOB | q = 1 | S = 0 | Stoichiometry = C22H27N4NiO2(1+) | MND = 6
Ni        2.49620856447393    3.11575095085316   13.14097113289280
N         2.19936972090309    0.83679392809347   12.48017663402363
N         4.14427826054246    3.32504860078897   12.28134771947164
N         0.75802957060830    2.68385456176971   14.08586672946086
N         1.68801426972706    3.80526795665198   11.37695847569328
O         1.80449850710806    5.34592031869151   13.66621547561283
O         3.28034870446095    2.72549242029315   14.76224376585150
C         4.52222066739631    2.60462650622165   15.06420713001099
C         4.86732224568994    2.25922166966265   16.39494099011034
C         6.17369609411478    2.11096667993522   16.77451187443386
C         7.21743882909787    2.29086440312674   15.85853487753076
C         6.92556001470580    2.62669260424670   14.56529352120577
C         5.59246808847709    2.79208919348502   14.13867702099378
C         5.31453196495129    3.15108993756533   12.79755293213212
C         4.06469013894405    3.74293938888316   10.88845162674260
C         2.66956481498062    3.42187369860828   10.35370865091583
C         1.39093646059032    5.24269092614733   11.35496056426235
C         0.81767963879768    5.67784608942498   12.69702218614492
C         1.39964407012301    5.54909872481286   14.97029150107128
C         1.75113595485510    6.73589442295118   15.59407039312930
C         1.36752381686429    6.98268791169214   16.90096193104164
C         0.60936046999169    6.04492823434738   17.58584326403332
C         0.25849262555217    4.86151702854501   16.97063946389289
C         0.65493952223912    4.57524343525363   15.65668957822385
C         0.32042931679832    3.26822027599062   15.13633518323605
C         0.29964747193086    1.31047418465992   13.91320265508391
C         0.75793075455462    0.68986280394816   12.59402851301155
C         2.99845272708470   -0.21654880785749   13.07776092518619
C         2.88761842935318   -0.09463554169680   11.61150206941945
H         2.47675157998206   -1.03334071923862   13.56233270562167
H         3.90284704534357    0.09984475786294   13.57663136990055
H         7.71936501508235    2.77279063712604   13.84735818488865
H         3.71955155462647    0.30368811175504   11.04820173275068
H         2.29143707498372   -0.82714519149510   11.07972589392612
H         0.28435687777519    1.19408149839973   11.74519874747494
H         0.44504935221074   -0.36492412984227   12.57791615709425
H         0.71773188569986    0.70992276017373   14.73022439769651
H        -0.79363315013351    1.26511609632422   13.97836729459566
H         0.29761947854926    6.23729850725833   18.60029303653657
H         6.40329506568847    1.84973499011182   17.79667914897632
H         8.23986563972004    2.16674234807576   16.17656551347750
H         4.05937069106558    2.12434321981082   17.09730461381777
H         6.18696948449616    3.29273743058638   12.15721087336410
H         4.82767245681168    3.23822101673204   10.28441166052874
H        -0.37432010600693    2.71949848482137   15.78220565449488
H         0.63177045456312    6.75990440442198   12.70187702950710
H        -0.12569021318931    5.15566264318027   12.90900924339636
H         2.32311178569789    5.78884184376629   11.20272861537979
H         0.69398708197114    5.49796649634466   10.54789381483909
H         0.81554330392601    3.30887946152035   11.20308846963209
H         4.25668271952513    4.82160689167111   10.83110463983152
H         2.48913125152359    3.94148926005550    9.40404810938157
H        -0.31909369558869    4.12864295171702   17.51461211832201
H         1.65135757851500    7.90679651509380   17.37956487581629
H         2.33631741423386    7.45732245743464   15.04452989353870
H         2.58672065801309    2.34650474923555   10.18714942039118

