61
CSD_code = BUCRUO | q = 1 | S = 0 | Stoichiometry = C25H29ClIrN4O(1+) | MND = 8
N        -0.15377200930919    9.69726990334780    1.08305520102377
C        -2.45340459063946    9.40330288010084    2.20624502559779
N        -2.39301315098041    9.43990365980602    0.83761569621038
N        -4.42362525066831    9.24905301461406    1.22382891233773
N        -3.56286023316518    9.34250365944667    0.24730899758387
C         0.86326032245427    9.91683226913924    4.78611757385146
C        -0.84575959570794    8.33466130303517    4.94431141717721
C         0.18219484934136    7.82005042350313    4.09000424385363
C         1.26082862710528    8.78826042420628    4.05575277452867
C        -3.82760567231393    9.28635915981323    2.44224282796004
C         1.66660333578056   11.12687560193155    5.12077846518608
H         1.90864304619874   11.12334142836420    6.18397871035420
H         1.10024874665415   12.03297407582873    4.91087705928346
H         2.59474690757467   11.16114674506037    4.55679264942008
C        -1.11547467953087   10.53111054019436    6.34102166382899
H        -0.52033997359666   10.50642946605832    7.25498643612576
H        -2.12024415837981   10.19151667920759    6.57144115310869
H        -1.16003080251234   11.56409061231821    6.00205004665084
C        -5.82217257935924    9.16469009168616    0.92352002804061
H        -5.99607820531568    9.65210612955774   -0.03407445691360
H        -6.39299632941553    9.65701832604935    1.70932972342570
H        -6.13752536142923    8.12300902175869    0.84644156945657
C        -1.17854363356149    9.65813808969167    0.21275279934458
C         1.05755664674960    9.97166837090332    0.59790074973809
H         1.86391104798210   10.02790482115445    1.31270445375593
C        -1.04133476076504    9.85859810902868   -1.15248640745974
H        -1.91325352027587    9.81634562980147   -1.78402146547734
C         0.29227667200993    6.40931483229444    3.61414299084061
H         0.81105612685805    5.81211149876886    4.36568541304933
H         0.85775522938338    6.34412678893850    2.68732771088180
H        -0.68923116536490    5.97039356012567    3.45439364447069
C         1.28781253805249   10.18815154446181   -0.74719630588772
H         2.28541783136907   10.40832736949093   -1.08991888799177
C         0.22458105724622   10.12558273812899   -1.64147944840398
H         0.37998008060319   10.29418936366874   -2.69484957608672
C        -1.99957003909434    7.55482823331372    5.48304440268673
H        -2.38378542641107    6.85383267747073    4.74658408712415
H        -2.80970580726586    8.20825967306824    5.79263600206560
H        -1.66493267554087    6.98490300666884    6.35087786260411
C        -0.46772501618895    9.66427289537822    5.31508292043583
C        -4.18847685625669   10.29059637402830    4.64186843643613
H        -3.40298334865154   10.98765565053945    4.39585032282312
C        -5.56654401445639    8.42201089349247    4.01524563556109
H        -5.83447348496895    7.63826419782051    3.32284190895324
C        -4.85443079634271   10.37691402718339    5.84032158460036
H        -4.60890715212799   11.13883395471555    6.56262705977454
C        -6.22838378794965    8.49585865142072    5.22644883197621
H        -7.00969167973653    7.78453041171141    5.43900487522006
C        -4.54344285272095    9.31304594554385    3.70667881986363
O        -6.46640403604988    9.65141101470877    7.35441664464629
C        -5.88637040173690    9.48084102393077    6.15309056786923
C         2.60550195915830    8.52177307067581    3.46748330306729
H         2.53381315287232    7.96176050314514    2.53657493802489
H         3.18560906955568    7.91979352694496    4.16892972201336
H         3.15560717271273    9.44279953308610    3.28807337328023
C        -7.53867949936350    8.81466385098631    7.73237593126904
H        -8.37956537818544    8.90619632619613    7.03922037315334
H        -7.84524769826035    9.16009702282317    8.71759950396615
H        -7.22614889962815    7.76841039846185    7.79691909330480
Ir       -0.66886108423251    9.62778704145537    3.12549145800500
Cl       -1.06830881220234   11.94280196374519    2.82903095241114

