37
CSD_code = BUCTAU | q = 0 | S = 0 | Stoichiometry = C14H12MoN2O8 | MND = 6
Mo        2.78045663125001    6.61701567885763    7.49269387569655
O         3.58060389120723    7.88675437688442    8.73041979038199
O         2.25047048788188    5.86206432499352    9.50607756027909
O         2.27504764443265    4.83106485665416    6.90986172511150
O         4.48373410477600    5.32556424361160    8.07095633494732
O         1.27964427591675    7.28533421898803    7.46527637494211
O         3.67003469073179    7.01404270834512    6.16948706722811
O         2.28852458282549    8.96502218348507   12.29634013962144
O         4.60997051236225    1.89330075002044    5.70132892647526
N         2.92791354210592    7.92506696165505    9.92370466422815
N         3.35567816919170    4.04007348147830    6.66935865958381
C         2.25014853860850    6.84762672948859   10.27885718635804
C         1.54185871677801    6.80384680818590   11.57329615052968
C         1.56597851002223    7.83344214933596   12.52647621857477
C         0.85157201344731    7.68495026250244   13.70987021529936
C         0.11718472467995    6.54041959479638   13.95849924107463
C         0.08561975304407    5.52044179566070   13.02136629373029
C         0.79166848647184    5.65828764751988   11.84419606804379
C         4.47906391791083    4.34104715197287    7.29683441052038
C         5.68490995455061    3.51050046868639    7.10866750673905
C         5.73048476906087    2.34201365596851    6.33283443771314
C         6.92724560441996    1.64339130775398    6.22069503410281
C         8.07117948218775    2.08496985560155    6.85923677567824
C         8.03547350638160    3.23928153562668    7.62473625288925
C         6.85231276887533    3.93905407796607    7.74275439589196
H         3.03063332340781    8.77820900051097   10.46911319476961
H         3.21022644935597    3.25364675745152    6.03989642464262
H         0.87357503291939    8.48245046994653   14.44114289756677
H        -0.43005880897609    6.44963017853288   14.88424655594844
H        -0.48841365322977    4.62701674664683   13.20901178970794
H         0.78132605944523    4.88511544733357   11.09148216723817
H         6.95636826116461    0.74297270826743    5.62103300178551
H         8.98843494057103    1.52579989328891    6.75529239274950
H         8.92587221560260    3.58989990598910    8.12209221138387
H         6.79379888741907    4.84539520352030    8.32555012590189
H         2.18360177682963    9.57416022390300   13.03956656365756
H         4.81715623635027    1.09142663858692    5.20274736897275

