29
CSD_code = BUDCAF | q = 0 | S = 0 | Stoichiometry = C12H12Cl2N2Zn | MND = 4
C         4.81347555543055   11.66046798653474    5.73915806976236
H         4.10582388637570   11.32763828870196    6.49994543789867
H         4.83889467693420   12.74634802734351    5.72241820412969
H         5.79570192457558   11.27902191771875    6.02108405353637
C         4.42060205760347   11.10383494617546    4.41797159499427
C         4.10617319761613   11.91768888150025    3.32971490874886
H         4.14627172330663   12.99090043465146    3.42865485783852
C         3.74514980235752   11.32653889631279    2.13444389586510
H         3.49302631094180   11.93299885819455    1.27719225434851
C         3.70742214042570    9.94404959810328    2.04392629733310
H         3.42504285554423    9.47770684412433    1.11543481176732
C         4.03730826992386    9.18736315653648    3.16532848145053
N         4.37974211080877    9.78182568425876    4.31015341081109
Cl        6.91593356571954    8.44950241951557    6.36813318276391
Cl        2.98579189528080    8.44949759087728    7.20576691139388
Zn        4.76161275631503    8.44949999195325    5.89564550861724
C         4.81347845312875    5.23853200240800    5.73915717570558
H         4.10582747914732    5.57136118967731    6.49994540381338
H         4.83889806713316    4.15265198115103    5.72241712457011
H         5.79570494482059    5.61997856571017    6.02108208075764
C         4.42060266884011    5.79516505061386    4.41797138561985
C         4.10617136686629    4.98131111987365    3.32971540418808
H         4.14626973153654    3.90809956142292    3.42865537998722
C         3.74514620167122    5.57246111224348    2.13444492821131
H         3.49302022641226    4.96600114754368    1.27719403014217
C         3.70741912173009    6.95495041187415    2.04392719547684
H         3.42503731347444    7.42129317577338    1.11543649012557
C         4.03730806910552    7.71163684718767    3.16532855047954
N         4.37974362697332    7.11717431201787    4.31015296966329

