46
CSD_code = BUDDEK | q = 0 | S = 0 | Stoichiometry = C15H23IrO7 | MND = 6
Ir        6.18802632673272    5.03010574689214    4.00849193101038
O         6.42781416560841    5.75632306398512    2.10130121773430
O         7.34010091661209    3.40723379318926    3.51368002743556
O         5.14582950717043    6.69983104902221    4.50975540819584
O         6.05262300963697    4.33422157069424    5.90478225039488
O         8.17386022784791    6.17134885117052    4.59847491676784
H         8.31848055918254    6.75191665751214    3.84503609931711
H         8.83930203443238    5.47687031720599    4.57596616160676
O         3.06062355342381    4.11055982080652    5.32227833124244
O         4.87119448034484    1.94058946642633    2.31333868099499
C         6.86298121889788    5.07938161852989    1.12483727933652
C         6.78315107637530    5.74591880917530   -0.23100314825290
H         6.09496308338193    5.18872302710766   -0.86262249766833
H         7.75808664832257    5.75308167241727   -0.71222359910272
H         6.42000688617920    6.76368854692461   -0.11815579578793
C         7.41410798803713    3.79958246575346    1.17215979344775
H         7.69833188836465    3.34869471895795    0.23532880273911
C         7.60312626139591    3.04407994766462    2.33273844903123
C         8.17854344451011    1.66010786000709    2.17743227701414
H         7.35201441578683    1.00311049664315    1.90889334154086
H         8.59596935053065    1.32134192330000    3.12165114517528
H         8.92857278419182    1.62166959648559    1.39323477071272
C         5.41547413471925    4.89268933496862    6.83737101819279
C         5.32318288507647    4.11822782361850    8.13015216886951
H         4.32506733526616    3.68882158868530    8.19181183321110
H         5.47822834767485    4.76729358705901    8.98699062243944
H         6.05227648172428    3.31301596402632    8.13261052461169
C         4.78975159039784    6.14094286171811    6.79415660360302
H         4.30660974197434    6.48677462122738    7.69365004336564
C         4.69744154364066    6.94984549077461    5.66545395810289
C         3.96442692212104    8.26505081226096    5.81608687803880
H         4.02031666000199    8.82437168583659    4.88656553396867
H         4.40169135627661    8.84913854340294    6.62187270068288
H         2.92192368637698    8.07226363817065    6.05836902396969
C         4.45212955109390    4.00220252711982    3.36449160430284
H         4.31472646452761    4.31572292650803    2.32387494688928
C         3.31527346946735    4.48716702866330    4.19554320551494
C         2.43846384012089    5.49809578164869    3.48993311957874
H         1.92465459877459    5.00465813777487    2.66696941883825
H         3.05277867987220    6.29657167694663    3.08416270653244
H         1.70295746417412    5.90210265382551    4.18097588440762
C         4.71640005643716    2.52566735243586    3.36951164739859
C         4.75565586155132    1.81935172304861    4.68792988593536
H         5.63451034238014    2.15679098853123    5.23172884645946
H         4.79960641055419    0.74399574102448    4.53499816963221
H         3.88474274883036    2.09515649086603    5.27761381257035

