61
CSD_code = BUDJAN | q = 0 | S = 0 | Stoichiometry = C24H30N4NiO2 | MND = 4
Ni        1.79257898007380    5.23668553717522    4.99336998518465
O         1.47699137710699    5.18900058122083    6.82207946652181
N         3.18468843148373    3.89967442100822    5.18475997877448
N         3.72617343444925    3.34028758437262    4.01894488366589
C         1.68182957173318    4.97121831375874    9.16318797713803
H         1.42113120747582    6.02588989002323    9.22824660223188
H         2.45266879678540    4.73625338491831    9.88979812513445
H         0.79117395551966    4.38609076951042    9.39058338598525
C         2.14173787127653    4.65770610831697    7.75750325123794
C         3.21538078289419    3.79894789447268    7.57320295170750
H         3.70209110847171    3.38355659781428    8.43976885802209
C         3.66479315910597    3.40296475537461    6.31007804952374
C         4.74208970677905    2.35404900057356    6.25140790373847
H         4.50506136844570    1.61169585113757    5.49162615558683
H         4.84730703862657    1.86324045189734    7.21416277260674
H         5.69573274123714    2.81077764746632    5.99000195443091
C         2.86889186013645    2.66933072790195    3.17088873152781
C         1.56716495366127    2.34830573323149    3.57929086194678
H         1.20966154491257    2.67904818520332    4.55066682748080
C         0.72421404883200    1.64092649640088    2.74805912212029
H        -0.28058086927622    1.41734523508194    3.07730074667850
C         1.15272043405668    1.21659223393587    1.50032165019058
H         0.49091026845407    0.66081304637891    0.85351136480991
C         2.44131958116275    1.51731999272016    1.09351337357337
H         2.78963664978850    1.19364590628411    0.12253492457331
C         3.29313877032396    2.23630546977933    1.91023954700871
H         4.28987368053687    2.45791457902298    1.56318426663540
C         4.88834809592014    4.02152390840731    3.48974939439435
H         5.66827464388574    3.29959593372634    3.23548929521333
H         5.26897813645203    4.69629469656157    4.25490340504883
H         4.63829763176593    4.61364288866243    2.60534552480120
O         2.10776167990580    5.28400901297799    3.16457324345255
N         0.40071549581021    6.57399722630998    4.80203600249719
N        -0.14007467136787    7.13392991155308    5.96790366656371
C         1.90223070596004    5.50118125259216    0.82346472057307
H         2.16292299811390    4.44649060683957    0.75861074180821
H         1.13117317342468    5.73595738402277    0.09702316618122
H         2.79282562161317    6.08624221468128    0.59564190968236
C         1.44274539773439    5.81508131070929    2.22920299851311
C         0.36922657607890    6.67397164957084    2.41358832794139
H        -0.11772151307300    7.08915111891573    1.54705353461823
C        -0.07968904065645    7.07045071588737    3.67674363410229
C        -1.15670365353551    8.11965365101664    3.73543236402081
H        -0.91937768434915    8.86202170530422    4.49511010269646
H        -1.26190060344527    8.61038555318201    2.77263453382618
H        -2.11044723766885    7.66321674192348    3.99699091369618
C         0.71796722989131    7.80426738436936    6.81568448692563
C         2.01986710560980    8.12417137221409    6.40694689480750
H         2.37687243969560    7.79308442847773    5.43548858462839
C         2.86360930081769    8.83091140011381    7.23791873819016
H         3.86851045749329    9.05362423354736    6.90841362229109
C         2.43575671454977    9.25570925364319    8.48572257851300
H         3.09818738327465    9.81098495476636    9.13232815871805
C         1.14699843649739    8.95611034232928    8.89285465638360
H         0.79918031113499    9.28016911270947    9.86388322426415
C         0.29438299873597    8.23777120986936    8.07639231392848
H        -0.70246710770179    8.01706046012960    8.42369097401408
C        -1.30262940736935    6.45364767557832    6.49750000192929
H        -2.08198921077727    7.17618724424115    6.75176150342955
H        -1.68390556460222    5.77896073519689    5.73259724229371
H        -1.05280729387757    5.86155631498667    7.38198582201868

