42
CSD_code = BUDORH | q = 0 | S = 0 | Stoichiometry = C18H19Cl2O2Rh | MND = 6
Rh        5.88120335519539    1.33420140661115    5.28072837298697
Cl        8.24288472797958    2.90218011642805    6.57474972179670
Cl        5.50727211701329   -1.64732121351984    6.32911407048189
O         5.36698092691945    3.22641346156200    5.83003902295970
O         3.98418637674217    0.76238639926658    5.71497537477268
C         1.75747995275189    0.76624514091001    6.41531113349869
C         1.79497884883134   -0.57311094732258    6.79587536898708
C         0.62348480735908   -1.26700729575885    7.03181247409058
C        -0.59958145075194   -0.63630104587539    6.87489032312416
C        -0.64532439676579    0.68947555567626    6.47547669315347
C         0.52463261419308    1.39041383522614    6.24775731017675
C         3.12106524993467    2.83440269691456    6.49230614979565
C         3.04306538505397    1.47497592911665    6.17571800527613
C         4.26326426850402    3.61488607772853    6.30204247395610
C         4.17604977806479    5.07570338223727    6.68426885059983
C         7.42018885050350    2.15320178045330    4.11365444199583
C         7.56282555411767    1.38222856493109    2.81621139975950
C         7.19189346957785   -0.10807585867026    2.95131504242996
C         6.18269559887723   -0.35459870161583    4.05986523935935
C         6.56883083474175   -0.64870635235152    5.36795826990653
C         7.99219516984536   -0.73672282217985    5.87442712778938
C         8.82797052695329    0.48628201805955    5.46555180229519
C         7.95853573840267    1.71778581813506    5.32170105330879
H         2.75265566973117   -1.05769641167422    6.91112130921639
H         0.66456657062704   -2.30257103132706    7.33582458829491
H        -1.51636776242489   -1.17777445393479    7.05676374309713
H        -1.59859709635387    1.17906049057090    6.33814029947569
H         0.47760675991221    2.41653699500569    5.91507101798589
H         2.25688805989426    3.31132999392341    6.92460710149674
H         7.25048022909820    3.22098892163690    3.98914426216319
H         5.21426454690287   -0.73006989213264    3.73468597146063
H         3.43502342561779    5.57698615914314    6.06459144802445
H         3.87341023018521    5.17130223381419    7.72451820009271
H         5.14394892203530    5.54969312402485    6.54249046811802
H         8.58684005929806    1.48640763124315    2.44277973702860
H         6.90042986872379    1.84730167836770    2.08387839990418
H         8.08102485742513   -0.71167309769870    3.13841931276142
H         6.76296897752500   -0.45037355119793    2.00894770344393
H         7.95568799767193   -0.79941310089179    6.96441114743454
H         8.45002918371525   -1.66080355778174    5.50814945436722
H         9.58741266743237    0.67313650146547    6.22516154301807
H         9.34404852893543    0.31119342147972    4.52104457011489

