60
CSD_code = BUFJUJ | q = 0 | S = 0 | Stoichiometry = C21H33MoNO4 | MND = 5
C         4.72767704506255   10.19218520356177   10.64200445281720
H         5.74348731905503    9.80322205786264   10.43258666743833
C         4.71897089871497   11.74437715563631   10.42399466757377
H         5.51637387886822   12.19779920784582   11.03904994040000
C         4.43458435299375   13.14765903317660    8.35075710969805
H         5.23762921277951   13.77322086138303    7.94835819803610
H         3.88206585140313   13.75230640600748    9.06574135179027
C         3.48453321899974   12.72376554764622    7.17418264881510
C         2.39959555712402   13.79089619555594    6.83177453311847
H         2.94143267567200   14.69571187646619    6.52862798418966
C         1.58920766732552   13.27529468895506    5.63482776875175
H         1.12164166012493   12.32818011312574    5.91376048217072
H         0.80606869645146   13.99324511548825    5.38810680257920
C         2.46394666522482   13.03049478881642    4.41219311239287
H         1.84295888387757   12.69206013704557    3.58067562898082
H         2.95529201696804   13.95950824048602    4.10864562998758
C         3.51856463267296   11.97906980479432    4.74246768333149
H         3.01809852371756   11.04794018867789    5.06257809809681
C         4.35435477814502   12.47852354386855    5.92093292192498
H         4.87321612883993   13.40057135197550    5.64567826811593
H         5.08200967380856   11.70315241232054    6.17272013796104
C         4.38360862923876    9.81927810282174   12.07153195875863
C         3.18711017098763    9.17417881900923   12.35540961074855
H         2.51795416570922    8.93585308551202   11.53855985523289
C         2.87130643097378    8.83323442310834   13.65891950935687
H         1.94052571334997    8.32860203509863   13.87078394964134
C         3.74636703907356    9.13645345758093   14.68814899310197
H         3.50021101840802    8.87123701918960   15.70548787351365
C         4.94431249481322    9.77352220689020   14.40896028816849
H         5.63371616360498   10.00325891538367   15.20792307775095
C         5.26481187602055   10.11058155415766   13.10608204352874
H         6.20633952189753   10.59563889401888   12.89024181937452
C         3.36451997174909   12.27514539301075   10.89340278273346
H         3.34995938813576   13.36092925204586   10.95872232742571
H         3.16257255348184   11.88874943773565   11.89066769483854
H         2.57331013733937   11.93461636235027   10.22077362920409
C         6.41827654323567   11.83204842977484    8.72635893671341
H         6.60580822445842   11.94610645293358    7.66260620312136
H         6.77774037609438   10.84566791257219    9.01219342738596
H         6.99324905541992   12.59389902523259    9.27516116276911
C         4.40895029179597   11.66576622938985    3.54493833740957
H         3.81068429463402   11.31066499948317    2.70943732382241
H         5.12733358802493   10.89308412935371    3.80587399680624
H         4.95065601627843   12.55498223129951    3.22586470628226
C         1.46862215792333   14.18362704982330    8.00261178809125
H         2.07755818702826   14.30858318769230    8.90300544639702
C         0.81288576651147   15.54076510519757    7.73418499780444
H         0.17634562886161   15.50285567452663    6.85442154687549
H         1.56481757433098   16.31213920943188    7.58105600513143
H         0.19600317433968   15.82862910514951    8.58252973823234
C         0.39340236334550   13.14151600545905    8.31600203486857
H        -0.06997101427581   13.36969517983609    9.27451611462186
H         0.81834502826680   12.13864848995214    8.36411518867412
H        -0.38493479022793   13.14920196365393    7.55760521696241
N         4.98847780732974   11.95579107047374    8.99418280195576
O         3.84455335605826    9.65506637315855    9.72879552885736
O         2.89410745236456   11.52652074988815    7.54211718673874
O         4.84095335331435    9.55732274665234    7.15048679049097
O         2.18562009159460    8.96107261577819    7.73325268044793
Mo        3.48918086067751    9.93408317467561    8.01000333799213

