85
CSD_code = BUFMUM | q = 0 | S = 0 | Stoichiometry = C40H37ClN4O2Pt | MND = 4
Pt       14.74523644589950   11.00272104199532   15.78431670795181
Cl       15.95526589945731   12.51486625460117   17.00931982123425
O        13.18802593640475    6.10673075661233   14.92009020006017
O        13.07024909487664    9.18265545657083   11.18587235632262
N        14.59738020736186    9.51506320978872   17.13959205792996
N        13.75677234032242    7.52069541753233   17.66830214914556
N        14.56318454913685   12.03244653731935   14.05992346547986
N        13.68066252811266   12.15738898315927   12.01830250305015
C        13.80784857492601    9.68258455400318   14.71348379416833
C        13.57602505295990    9.97680253729068   13.36389301918077
C        13.19499723862049    8.92582754515541   12.51352251013097
C        13.02918041048526    7.65336864642555   13.06276280700513
H        12.74440526943256    6.84756115287399   12.40897129146176
C        13.24665439885664    7.36372807187620   14.41045223894942
C        13.61286377675773    8.41215525743509   15.26927685825743
C        13.95801106093409    8.43159509409643   16.67440751492469
C        14.83933655634084    9.30780974484144   18.47134032408595
C        14.31175251305303    8.04834344432640   18.82228168722264
C        14.36608677961402    7.58031249865500   20.12606764256857
H        13.93114662218780    6.63283583908429   20.40496703138233
C        14.99064714210351    8.38598370563875   21.05812566848144
H        15.05484450564229    8.05146602460404   22.08271858124558
C        15.53649284453159    9.62309883111594   20.70995620370412
H        16.01674971907818   10.21562270931759   21.47360091109953
C        15.46611289557498   10.10807346726914   19.42174210852630
H        15.86818098440998   11.06862167026941   19.14052063016090
C        12.91872752133167    6.39064615813565   17.67067730838880
C        13.37497955992269    5.19304486204873   18.20639417142111
H        14.39985169180799    5.11026446524930   18.53488678930679
C        12.51563247161392    4.11326590167190   18.30255093513702
H        12.87003521694755    3.18259962452069   18.72030589027551
C        11.20784089031976    4.22145582777680   17.85870969976268
H        10.53844371699670    3.37760917238656   17.93825702367032
C        10.76055966438387    5.41220425162797   17.30873677396050
H         9.74250074561935    5.49681245047034   16.95846323833012
C        11.60872884110276    6.49960181700570   17.21876928524882
H        11.26527945105243    7.43684674013530   16.80736193209903
C        13.03639773872665    5.00775336386476   14.04326992113933
H        13.78133134722767    5.06241217444280   13.23759928169593
H        12.03198948667950    5.01401641574733   13.59674278731409
C        13.24026889591175    3.73084970304293   14.84870198027281
H        14.22491176384429    3.76988890202311   15.31744940446724
H        12.49564041624175    3.69764727019044   15.64407628073579
C        13.12556404473402    2.48333441166534   13.97780414199617
H        13.87862134161637    2.51866747123928   13.18731219262842
H        12.14343448984236    2.46500955965458   13.49982905058014
C        13.31263727389307    1.21567149121162   14.80164110214086
H        13.22794970665859    0.33377945959367   14.17157723512168
H        12.55802679906258    1.15578057938683   15.58239051518029
H        14.29285048447544    1.20952716455062   15.27227683903780
C        12.85905962999826    8.10825535191774   10.29069843897834
H        13.63683997014660    7.34444758690301   10.42888006578287
H        11.87713966406248    7.64958605354801   10.47412677523496
C        12.91698795367901    8.65375505724228    8.86977423124431
H        13.88400550602454    9.13633486938590    8.71985096124488
H        12.14554738643271    9.41555743264275    8.75794142419225
C        12.71344825910895    7.55492161072726    7.83073084350141
H        13.50258657710502    6.80622546357941    7.93004406048624
H        11.75865067088976    7.05661465942440    8.01401967674037
C        12.72523804025650    8.12246014481060    6.41706203166525
H        12.57689571030861    7.33166775406470    5.68589631551549
H        13.67553271580999    8.60874637469883    6.21033976920225
H        11.93210759601737    8.85670486229002    6.29683034632439
C        13.90475167230567   11.36197084475449   13.10231786659424
C        14.79575018368541   13.29724135565833   13.58944159386097
C        14.24115376132192   13.39301876436072   12.29691718828783
C        14.28107865082739   14.57847010524411   11.57932027604938
H        13.82508106957525   14.66467511083704   10.60498597299189
C        14.91986858604146   15.65076193104449   12.17082990412236
H        14.97388440938735   16.58884635859177   11.63888926058422
C        15.49322992698621   15.55318630611140   13.44021727093844
H        15.98441735853697   16.41802431072161   13.85936801121404
C        15.43669755618124   14.38655363552834   14.17201841924937
H        15.85999022093679   14.30135597996422   15.16040834140440
C        12.80933068562216   11.94487306778544   10.93429514538807
C        13.22924351741196   12.23582730266678    9.64268086109655
H        14.25263530520364   12.53085903285065    9.46721814775065
C        12.33527158255546   12.13520829105842    8.59194587174740
H        12.66096090464171   12.36365746969085    7.58804331728733
C        11.02883903365853   11.73749095249114    8.82427041643015
H        10.33173232864446   11.66503449942788    8.00254673841014
C        10.61819720710749   11.42879813455362   10.11148379593732
H         9.60145503429605   11.11357131392750   10.29334594989680
C        11.50162546914381   11.53639541764094   11.16872667951695
H        11.18744895014022   11.31545490312530   12.17774016868587

