93
CSD_code = BUFNUN | q = 1 | S = 0 | Stoichiometry = C46H43N2PRh(1+) | MND = 6
Rh        9.08311061287215   11.96283277654312    5.28097294006062
N         6.26420978403771   12.16790270539659    4.27535908336623
N         7.13638543763332   10.27967343022547    3.73393009139794
P         9.39079832441349   13.48371514764974    3.59656283325195
C        10.72323860609983   12.84379922561167    6.50576160514531
H        11.00190224553170   13.79970055387939    6.06459012141964
C        11.17705014462271   11.71374803097426    5.86846677946666
H        11.78124148584002   11.85329066128346    4.97145204549942
C        11.34230359871699   10.34439048891970    6.47972905248124
H        12.27301384726711   10.32997756590024    7.05574556542679
H        11.46116058250419    9.62130358549352    5.66756331612605
C        10.16622969995682    9.91039194883673    7.37058458510406
H        10.14008797824534    8.81987549205118    7.40435536318585
H        10.30885584312605   10.26015289768126    8.39269981253293
C         8.84273692746821   10.41857008300210    6.84956243756899
H         8.18130898065862    9.64406185312718    6.46620677474595
C         8.25061128604617   11.59610982694258    7.26043753823491
H         7.16599050411039   11.66839297606283    7.17999713139896
C         8.84841743165543   12.59714027567757    8.21554593644951
H         8.71735703161717   12.22575111790483    9.23727641490376
H         8.27115571609307   13.52315248953412    8.13971092493941
C        10.33858774968244   12.90709859578631    7.96617613623980
H        10.54708669265054   13.91047269304223    8.34113257821365
H        10.96952785187193   12.21824599197095    8.52834637036086
C         7.38836720378404   11.43627528063534    4.37511715598622
C         5.30893040927631   11.47593253376485    3.57507594181491
H         4.33885841703425   11.88214674044391    3.37804656258968
C         5.85789605046230   10.28728446576152    3.23960555349873
H         5.43910730964688    9.46621523835354    2.69756316456451
C         8.13053460738145    9.25182772700899    3.47879502502614
H         9.03829931588320    9.58078745299938    4.01498018809531
C         8.42195919156823    9.18789935040779    1.97999927879602
H         8.63258381777188   10.18181869950751    1.58877322749876
H         7.57045302819219    8.78233435826161    1.43910178930571
H         9.27954230083384    8.54733566405218    1.79479114934674
C         7.67563167194047    7.89898402389505    4.01633801501562
H         7.42172711121752    7.96328250196191    5.07181853231802
H         8.47241672841649    7.17038590514671    3.89784095626904
H         6.80387069909874    7.54007916972440    3.47516468695248
C         6.17022623386193   13.54523894501323    4.61182959088538
C         5.70405077321951   13.94472498891426    5.87445814101993
H         5.45196848425642   13.19252006410018    6.60633080628248
C         5.54879808132188   15.27394766341822    6.14671631618023
H         5.19161143169342   15.59443750065958    7.11373541236983
C         5.81213800304274   16.24994668569594    5.16243930215917
C         5.59637356203883   17.62175408286896    5.40736198347085
H         5.24493179688204   17.92364265114333    6.38283006048930
C         5.81340885554997   18.54901132058759    4.42734265180690
H         5.63579057931886   19.59611523057386    4.61886776776725
C         6.26280401628543   18.14640899966630    3.16099560069219
H         6.42197799087932   18.88926538775349    2.39450642794693
C         6.50013081316953   16.82670438057250    2.89599383683849
H         6.84658048244410   16.51826489238973    1.92111938926265
C         6.27854065024367   15.84507878359258    3.88369743403318
C         6.48676752858815   14.46368544327858    3.63288713029780
C         6.96036074353886   13.97570704774725    2.31618749232089
C         6.04492933190198   13.94569051227525    1.23225087243811
C         4.70386226681213   14.36999495303933    1.36884338136978
H         4.36379823500235   14.73978085206858    2.32499206798539
C         3.84500196817107   14.32106765830349    0.30721862803443
H         2.82347427498680   14.65010469851204    0.42295473454852
C         4.27835439987882   13.84689550532012   -0.94106332984135
H         3.58543733959606   13.82025703370781   -1.76789384059157
C         5.56690648258239   13.42315209796187   -1.10429182886603
H         5.91032273347769   13.05521236269969   -2.05977602584526
C         6.47810689914759   13.45752375716293   -0.02842271061441
C         7.81074128503336   13.02086483205795   -0.16837628824558
H         8.14273020672141   12.66239751318484   -1.13164295418685
C         8.67214659172394   13.04691420246499    0.88984795327192
H         9.69189489881068   12.71615322551577    0.75888635742540
C         8.25670643743215   13.51815940901034    2.15191071977450
C        11.03421800074021   13.26092504529543    2.83487459974469
C        12.02072211948777   14.23467080784707    2.75324575272582
H        11.83435874758037   15.23495154825456    3.11480166174210
C        13.25843069073811   13.92099235483281    2.21429471007503
H        14.01904044058794   14.68424741577083    2.15093113792828
C        13.52517009918968   12.63994136651718    1.76352180772956
H        14.48982768610756   12.40478513484836    1.34134679009934
C        12.55665822703897   11.65298194516284    1.87255468275508
H        12.76759375113803   10.64694202582172    1.54192855665881
C        11.32569711969077   11.96020232777714    2.41707051981837
H        10.57110288929983   11.19014121631746    2.53952570030645
C         9.34590278815806   15.23734232144644    4.07882363503755
C         9.04168686622620   15.58100484142900    5.39018453333886
H         8.80595897661546   14.79524101200841    6.09780229336663
C         9.01598627028452   16.90953209476196    5.77186508309809
H         8.77914679810627   17.17496819412384    6.79117152888774
C         9.29307254085269   17.90005228828187    4.84452348425698
H         9.28242353447752   18.93696498332209    5.14302290481852
C         9.56959199178127   17.56308800213517    3.52894478826586
H         9.76828425744099   18.33745732781693    2.80351283263438
C         9.58713788858364   16.23648493191558    3.14019313307237
H         9.77996871307747   15.97172060764314    2.10904611856106

