39
CSD_code = BUFQOJ | q = 0 | S = 0 | Stoichiometry = C13H18CuF3O3S | MND = 7
Cu        1.68289181285629    1.55178896910737    3.36451215026878
C         1.46015405498203    1.63831459855835    5.19670298050409
H         1.16062089413592    2.67219181815303    5.28031047860036
C         0.56436784724009    0.77569355579312    4.65821470911464
H        -0.38987315778826    1.19490922115815    4.36365214071525
C         0.52173103152995   -0.71614246867076    4.81122384375961
H        -0.44124452230517   -0.95960487492376    5.26854296764947
H         1.30015393577009   -1.05204305037501    5.49562571595801
C         0.65188357013466   -1.49925898340943    3.48995277279389
H         0.11744420695227   -2.44810459303086    3.59198745123241
H         0.20867739039865   -0.92959937399405    2.67328373971726
C         2.09269997989730   -1.76375460231411    3.19968037321141
H         2.62954372379180   -2.25755458127387    4.00299537801955
C         2.72992452007338   -1.42394214304065    2.09205205766015
H         2.19029736196352   -0.97420064176306    1.27409914750108
C         4.21045931130194   -1.51583383306597    1.90593753419823
H         4.43996931116748   -2.11661334421618    1.02187933100273
H         4.68116721867261   -1.99025293047949    2.76905697767525
C         4.79342533342366   -0.11228789188333    1.69155231945470
H         5.86627804268933   -0.19545686796584    1.48740856925325
H         4.33338994568790    0.33591222349445    0.80462070095196
C         4.60502387497641    0.85420601696511    2.82098385823089
H         4.93069834097985    1.86098318802083    2.59190174800579
C         4.08551690789523    0.59196687507268    4.01594497648574
H         3.82730717803787   -0.42068456987381    4.27888739032205
C         3.97524348397143    1.56750379598515    5.15262091912161
H         3.97231501493295    2.59071880474785    4.77550631647005
H         4.83947813514345    1.44450687353218    5.81384873423415
C         2.69989885217476    1.29332564407640    5.96142193008014
H         2.69005851306620    0.24238537397326    6.25000812914775
H         2.72162990808962    1.88948574269669    6.87652702932552
O         1.59728422743594    1.14530478230908    1.57206097646610
S         2.10659265363447    2.48750485837902    1.40256694819423
O         2.77706440459890    2.76038812737556    0.18307537687280
O         2.70350182161362    3.00693450913242    2.61652956825868
C         0.49153498277827    3.44694981991700    1.39465161401953
F         0.63941298352978    4.76594442120630    1.33949838934573
F        -0.35109929354131    3.07934964845930    0.43425359702126
F        -0.10742380189287    3.16116588216297    2.57982115915430

