39
CSD_code = BUFTON | q = 0 | S = 0 | Stoichiometry = C13H19MoNO5 | MND = 6
Mo        0.89264601230688    7.81202797322349   13.97756588682646
O         1.85605551295566    7.85020192768502   12.46898249029936
O        -0.02870312017846    6.63874279001296   15.06173912009799
O        -0.50544040122253    6.39559947166079   12.25075802029889
H        -1.34871784297268    6.74707307347547   12.56292743486062
O         2.02800454344844    8.26202148591987   15.09242022834980
O        -0.35433910762108    8.85023671041869   13.68823494214917
N         1.78276130187967    5.41885886208541   13.69781689438373
C         2.86495177763581    7.38550513205777   11.74569130634565
C         3.23719074124770    8.01592798278072   10.55424536297770
H         2.68984731796215    8.89951975882202   10.25807018972571
C         4.27888779953034    7.52472429923240    9.79449125243259
H         4.55698520198580    8.02998355628454    8.88113063685066
C         4.97770443411144    6.38958564539879   10.18864810643998
C         4.60187132352211    5.75920449611982   11.36700019138833
H         5.14022486312860    4.87680386105091   11.68685493193517
C         3.56648196267627    6.23706474207614   12.15651627003542
C         3.22681801210573    5.56638858278686   13.46389363265552
H         3.71663982681911    4.57819123676784   13.49469173971069
H         3.62228344044155    6.18028899240627   14.28304537275898
C         1.50184459424552    4.79474117309018   14.99295080122288
H         2.42980849131877    4.52535600923161   15.50492728985524
H         0.91909920063537    3.87840891216107   14.84459078769771
C         0.68982484683939    5.78302022754460   15.87449782783340
H         0.00256205685440    5.22450049941294   16.53333993146238
H         1.38503329566091    6.38158231339161   16.49140627106786
C         1.12389819830412    4.70975005559079   12.60013947984871
H         1.27842864914997    3.62124040730818   12.67597699333738
H         1.55354499403654    5.05856369608273   11.65566997883976
C        -0.37251890266165    5.02384656995229   12.56982432292287
H        -0.85781796993174    4.41612643843039   11.79061515775313
H        -0.83427742373869    4.80000568159850   13.54015280292342
C         6.07941163702207    5.82890151699442    9.33462506579096
H         6.59658222226690    6.64196751599980    8.82235916225965
H         6.80400346637813    5.30498497547484    9.96066523409196
C         5.51614844075598    4.85837005439241    8.29427802289299
H         5.01492141330158    4.02654829255597    8.78435827526399
H         6.31438686863049    4.46371860343825    7.67015328698636
H         4.79486232118110    5.36491647707219    7.65744529742061

