57
CSD_code = BUFVAB | q = 0 | S = 0 | Stoichiometry = C19H31MoNO5 | MND = 6
Mo       13.43383631673894   -0.16318227269516    5.75513795944390
O        15.16077806972170    0.00013004533469    6.03495636154745
O        11.96346130076933   -0.56633232923809    6.76426834829438
O        13.65025317298261    1.56654171757663    7.82958775846326
H        12.89005785133317    2.06542293152080    7.50515767586768
O        13.39624824286219   -1.49135887950022    4.76625153170512
O        12.90398429601871    1.26222343757726    5.11250332504741
N        14.06296175929687   -1.28137161295336    8.11586691391695
C        16.36571895062725   -0.27584694312179    6.51315518183183
C        17.51687853829965    0.41655918663104    6.08578678721303
C        18.72526664262924    0.07692302680228    6.67067316520355
H        19.61333021237434    0.59727051277515    6.35676274605033
C        18.85499556322604   -0.90808785507469    7.64815330912042
C        17.71095816711279   -1.58792849677957    8.03504280072994
H        17.75690144536125   -2.37276944176759    8.77326651150999
C        16.47689835739608   -1.29076558545531    7.47607007572352
C        15.25488256288864   -2.09732894369033    7.84876262656174
H        15.00922752573787   -2.76000039743865    7.00772399754671
H        15.49266639296126   -2.72103114164654    8.72830172447237
C        12.87380940981743   -2.08779576227241    8.38228221920159
H        12.44254011803687   -1.80132689276974    9.34813867767184
H        13.12169466794509   -3.15301529855598    8.42601826290968
C        11.82025445432219   -1.84481817156183    7.26528160203073
H        11.97781935536426   -2.56942596259265    6.44525257921349
H        10.80508560745504   -1.97714182596568    7.67661552357739
C        14.30566444976646   -0.28707591707905    9.15867988146863
H        15.31923127052313    0.10419455966346    9.02734992678642
H        14.22518448186851   -0.73019822473303   10.16508482432281
C        13.33750889765288    0.88979210299312    9.03123851820403
H        12.29948009199512    0.53447046582624    9.02277555127606
H        13.47746081673986    1.57073374058420    9.88497346546638
C        20.23009162286310   -1.20154247444846    8.23027711619918
C        20.19600855472144   -2.30118577297233    9.29523900892656
H        19.84306370188904   -3.24034114530317    8.87621172981156
H        19.55823364480423   -2.01864477595278   10.12956757653317
H        21.20051788413927   -2.46296228062806    9.68083200187397
C        20.78695164369891    0.07306673258754    8.87988195534770
H        20.89258248403180    0.87442864752691    8.15463645554008
H        21.76505629521433   -0.12427182805333    9.31339473777573
H        20.12140691849671    0.41396396483872    9.67004745585944
C        21.16397748887058   -1.66016433841891    7.10161821826339
H        20.75976692929094   -2.54636888013684    6.61757893877552
H        22.14605288334441   -1.90203855880279    7.50241757871651
H        21.28492173617525   -0.88687984147180    6.34875502973565
C        17.38980599534091    1.47653850071808    4.99825204459245
C        18.73937215413867    2.11547313343996    4.64883434395923
H        18.59235218167403    2.85578864435852    3.86569384554288
H        19.44249208997003    1.37332642881268    4.27795194331517
H        19.17026994290547    2.62132226308356    5.50998655539217
C        16.83081358479090    0.82396341576207    3.72318300447005
H        15.81960740175109    0.43257916819960    3.87878455797279
H        17.47687775782358    0.00712726726665    3.40547117212726
H        16.78566148522194    1.56067171109148    2.92396360042166
C        16.44455749797257    2.59152468987073    5.47187104097138
H        15.42357705916234    2.22451174479091    5.59338577034308
H        16.42818444212027    3.39407828381840    4.73762869121902
H        16.78815762976746    2.99867552763622    6.42151579393305

