58
CSD_code = BUFWEG | q = 0 | S = 0 | Stoichiometry = C26H26IrO3PS | MND = 6
Ir       12.37161000691278   -0.48953817342486    3.30200836456636
C        13.83796993705878   -1.89702193927776    2.58749500326337
H        13.45319485469910   -2.23444549556981    1.62881060887921
C        13.24518259947962   -2.40936093391015    3.73401691971527
H        12.45276370196745   -3.14063613146193    3.60659249517945
C        13.90751874411050   -2.44251042830664    5.09338217002350
H        14.70897166995007   -3.18802065234939    5.09019687546782
H        13.16342265308792   -2.76731135475621    5.82058146272486
C        14.45401079553801   -1.06691721246050    5.51509478987469
H        15.50759508846703   -0.97457567494261    5.25079976949455
H        14.38265322683151   -0.97277249109589    6.59904922147846
C        13.67825613512628    0.07142978512986    4.86428131972886
H        13.21976642495421    0.74732253890122    5.58755389748376
C        14.09242018913136    0.66361747489193    3.63076117719764
H        13.95295623050725    1.74335850757157    3.55068403202421
C        15.28323821182709    0.17571124195217    2.82712449076371
H        16.21187944503789    0.45126458702728    3.33768483605204
H        15.27357654754070    0.70162357380810    1.87157151236557
C        15.24767882297808   -1.34277990054073    2.56219084540556
H        15.69091353381758   -1.54137997680520    1.58572130430392
H        15.84753122078162   -1.87027792203881    3.30489798178264
S        10.11317862180743   -0.85406527001127    1.50159593484476
O        10.65962731950633   -1.65286332057184    2.62274046396340
O         9.60924517663858   -1.64896978532800    0.42059681588784
O        11.06988907670046    0.19704597178623    1.13256362606317
C         8.76926618153238    0.03357904116323    2.27087448030864
C         7.44619987289731   -0.28441177068194    2.05475689908016
H         7.21320509195133   -1.06013710007471    1.34205249008548
C         6.46282659486372    0.40110359499068    2.75105803291996
H         5.42044318556556    0.17262664161990    2.58746598501380
C         6.82551996842406    1.37598007404538    3.66839796073071
H         6.06216457360504    1.90507024592220    4.22045875571289
C         8.15833828400956    1.68180829436965    3.88781646672165
H         8.42245495716654    2.43183643135245    4.62032472785002
C         9.15304765976830    1.01447605281898    3.17330695494206
P        10.94164556334363    1.35312237354404    3.34234419204909
C        10.93439473357560    2.23334400677697    4.95492547786487
C        10.51103445949049    1.50372282357722    6.06475102717182
H        10.14834658506226    0.49478144339682    5.91543532376221
C        10.54992549526101    2.05657306394739    7.32945879455472
H        10.20827630323346    1.48702221775999    8.18131171632953
C        11.03562460329399    3.34388375885663    7.50518327473971
H        11.06901980403077    3.77934188160320    8.49283416903898
C        11.48652798680723    4.06508420344376    6.41345265133840
H        11.87651131152940    5.06331724530414    6.54937790901853
C        11.44182137812475    3.51193272666040    5.14415926398791
H        11.79773945018454    4.07962531671077    4.29639913791908
C        11.15008157693285    2.74820387208768    2.18334544494205
C        12.26163483694472    2.79787002121540    1.35274928742718
H        12.96797867475609    1.98413304260270    1.37734351766492
C        12.42911321590741    3.85587935019590    0.47763563336509
H        13.29323074600884    3.88788667611073   -0.16979130502602
C        11.48704491113996    4.86989147800516    0.42342020980258
H        11.61527270366004    5.69374677011258   -0.26335069089042
C        10.37304378028047    4.82060783774066    1.24501146494346
H         9.63149122115421    5.60522162210641    1.19968273830146
C        10.20317034475376    3.76498680835156    2.12297701096534
H         9.33065371029650    3.73216293614541    2.76023507883083

