63
CSD_code = BUFXEH | q = 0 | S = 0 | Stoichiometry = C31H28AuClN2 | MND = 2
Au        4.60100598586685    4.60226501283191   23.28968263038269
Cl        3.01129453371391    3.01126851595354   23.28912231551986
N         7.32792311684982    5.85459971565675   23.53454711388906
C         7.98347784413331    7.05088321550027   23.44193695791201
H         9.03706895352141    7.14219218099562   23.60721160378255
C         6.01790546196163    6.01784410704639   23.28993180656739
C         7.97208299972645    4.58456823850956   23.81729949360334
H         7.16578679668402    3.90274451456564   24.11303932762514
C         8.92698932009288    4.76852708373376   24.98003827448157
C        10.29972688192337    4.61557164648411   24.84493644930959
H        10.72203487163940    4.31754740951356   23.89854126281324
C        11.15091056113414    4.83934210764622   25.91402692238853
H        12.21512297835287    4.70835176859576   25.78708885486523
C        10.63844996216617    5.23639731017676   27.13545137487126
H        11.29789252848794    5.42009743052684   27.97027131678780
C         9.27291371812835    5.39617285288955   27.28195670898077
H         8.85858752394470    5.70018990932757   28.23225698868160
C         8.40807709992831    5.15721439464730   26.22054148909114
C         6.95683408393209    5.33754496371290   26.44501647277355
C         6.45342308831436    6.60657524709242   26.70806754834866
H         7.12678563057681    7.45303708859116   26.71204645214619
C         5.10513738969584    6.78522467631973   26.95963653785062
H         4.72782688452666    7.77446577578121   27.17755461515726
C         4.24517663032300    5.69977649622574   26.94585207892237
H         3.19179175253339    5.83958086953066   27.13694974470960
C         4.73965493697145    4.43152817474028   26.69154230471690
H         4.07430599187139    3.58240822500391   26.68332120953768
C         6.09024935369752    4.25004494103277   26.45057848340224
H         6.47843125165958    3.25535329813007   26.28314149137344
C         8.59844959130700    4.04429035101495   22.53413832319244
H         9.32568603672966    4.74301212467155   22.12600719736624
H         7.81135356661949    3.89702408769555   21.79779409067948
H         9.07959204690216    3.08893121201599   22.72339541206150
N         5.85466619205603    7.32786455203637   23.04543995904551
C         7.05094051635313    7.98342149475997   23.13808639574864
H         7.14221020082350    9.03702834345836   22.97289874823650
C         4.58461128181578    7.97196836011412   22.76262986286159
H         3.90284632494072    7.16566522956197   22.46675965453506
C         4.76861570716717    8.92693695088634   21.59993927201245
C         4.61559374996100   10.29966286620072   21.73508050928189
H         4.31753567681608   10.72192842041463   22.68148112417712
C         4.83931540280021   11.15089451355889   20.66600387235553
H         4.70822979655645   12.21509516574739   20.79295495317588
C         5.23643003223467   10.63850280842006   19.44457203567520
H         5.42008932154874   11.29798829774519   18.60977837077755
C         5.39625767023512    9.27297257320722   19.29801653846708
H         5.70028957665569    8.85869752437162   18.34770127344511
C         5.15731279620050    8.40809097924251   20.35939875888364
C         5.33760353357104    6.95684119974904   20.13492819660284
C         6.60659252064753    6.45334400594887   19.87183106242431
H         7.45308149390861    7.12666723506743   19.86767811796268
C         6.78515664352331    5.10501505661466   19.62043266775433
H         7.77435433676885    4.72763789781326   19.40243491389590
C         5.69968338314396    4.24509421709385   19.63448675066338
H         5.83942276635373    3.19166771540539   19.44357402846231
C         4.43147895082149    4.73965230959111   19.88885880417818
H         3.58233179219449    4.07434625893960   19.89726704570558
C         4.25006946888446    6.09030270851364   20.12957481164271
H         3.25539978781588    6.47857071694242   20.29694238585370
C         4.04413881264441    8.59825096942205   24.04576693495840
H         4.74281815111814    9.32541875300056   24.45409393086244
H         3.89676615320155    7.81106437756095   24.78199408799233
H         3.08880858529037    9.07943355244722   23.85647207855250

