34
CSD_code = BUGDUD | q = 0 | S = 0 | Stoichiometry = C9H20N2NiO2 | MND = 4
Ni        8.74227720137902    2.35057799597520   12.54780033227597
O         7.68620807665015    3.14006764146224   11.27468006092083
O         7.30070396338217    3.67096807571149    9.16675966326737
N         9.84707835017149    1.45761458560175   14.02311675016015
N         7.49355687731985    3.03380854546266   14.08140278572908
C         9.83663661777673    1.90512150302057   11.03520680338439
H        10.65696113156718    2.64542017863132   11.10450828392290
H        10.26218102923684    0.89056802963890   11.08997823455169
C         9.08716767155389    2.10213132489639    9.70611041541477
H         9.73307182166113    2.48856299676828    8.91385238676612
H         8.64751768493880    1.16459874021186    9.35916554602389
C         7.93472004579216    3.06288988589967   10.00236836587631
C         9.46102488264756    2.15842289131031   15.26080127321216
H         9.98844930828247    3.11544220868204   15.28082526824837
H         9.77970868305514    1.57912482245538   16.14222475118407
C         7.95461787201603    2.41200205210359   15.32724628141469
H         7.43074857039155    1.46265656152416   15.46382073918330
H         7.72711642368258    3.04520164395938   16.19882770713567
C         7.71009809282294    4.48254725755235   14.11561949863612
H         7.13829973982214    4.94600905597652   14.93260616723088
H         7.38897233318944    4.90960613057324   13.16650472168562
H         8.76729069657912    4.71093174012162   14.25242608994061
C         6.06701624655895    2.78508924712668   13.87759171857121
H         5.46695481051674    3.22750773821015   14.68448386274655
H         5.87347413012677    1.71316579349731   13.83788815401332
H         5.76851722447961    3.21877438849984   12.92476196567562
C        11.30917165445682    1.47351918745281   13.93878897968651
H        11.75602781220972    1.01410137727894   14.83089485536935
H        11.66743295988785    2.49814630938028   13.85418805798199
H        11.63842840914476    0.92234374706666   13.06129425275778
C         9.40567865705502    0.05977603625606   14.08093601975034
H         9.78230732580927   -0.43208860800386   14.98876965312530
H         9.78086135281643   -0.47721870902681   13.21187451385350
H         8.31922234302009   -0.00279037527690   14.06897584030343

