79
CSD_code = BUGFOA | q = 0 | S = 0 | Stoichiometry = C40H34Cl2P2Pt | MND = 4
Pt        1.07763739322601    6.31394330106786   14.25964285886336
Cl        2.28178156782716    8.22543476023284   14.76778921015630
Cl        2.72834145921521    4.88927799557479   15.04558671779466
P        -0.34982913519478    7.92995090964913   13.54811176285990
P         0.12348241326900    4.34653222638113   13.62181466614602
C        -1.06740677546740    8.97206920128841   14.84952559697527
C        -0.66600409793789    8.80791050696367   16.16927806624128
H         0.09265501562140    8.07037949172127   16.40414047673327
C        -1.22314129213228    9.59028312442648   17.16467193184653
H        -0.90613406337193    9.46489666624156   18.18925650487104
C        -2.18550387362954   10.53429780019181   16.84650209587251
H        -2.61719230954267   11.14902127163760   17.62269199433811
C        -2.60129754408272   10.68846451750408   15.53302901361560
H        -3.35741628938086   11.42010601063953   15.28731066945453
C        -2.05068560208579    9.90645218936620   14.53466251789852
H        -2.38273707224832   10.01261504905315   13.51005815786900
C         0.48803127149259    9.06457236856937   12.40436957777723
C         0.49118113141528   10.44575937006026   12.54250904199972
H        -0.04595690334900   10.91277901480636   13.35473028711903
C         1.21101290192314   11.22432289468444   11.65206460488656
H         1.21755536156588   12.29837454325120   11.76772692177231
C         1.93064897739633   10.63513374576816   10.62685681821984
H         2.49555277878925   11.24849711842671    9.94054424131378
C         1.94258429576403    9.25539342453436   10.49369189844191
H         2.51838933900798    8.79131049564510    9.70597758504071
C         1.22904497211809    8.47510444720269   11.38176887536128
H         1.24855064093182    7.39363536528700   11.30403007422957
C        -1.86339940234177    7.47148319895687   12.63197901556229
C        -1.91497090959879    7.55260877864848   11.24699246030224
H        -1.03498789584107    7.85178020957005   10.69652449853631
C        -3.04931603956837    7.15595521502694   10.55010604420655
C        -4.21916306182912    6.97539706801609   11.27931553972307
H        -5.15433542826042    6.80914969325771   10.76477132292613
C        -4.17102347187105    6.87177349295876   12.65748062936355
H        -5.06672850304941    6.61425918311500   13.20383475765144
C        -2.95962673980404    6.94761024017877   13.33201039503614
C        -2.78231171500379    6.27316605478718   14.66229859961343
H        -3.47727758000097    6.65858143452284   15.41032737698469
H        -1.76129173441969    6.44752574382846   15.01791275373549
C        -2.99305138078834    4.73036202573996   14.52436039977483
H        -2.36898348479259    4.23650080094375   15.26892788115516
H        -4.03536477100438    4.48708415287938   14.73686665951684
C        -2.95644980746638    6.71154847294768    9.11869335747982
H        -2.38001121132508    7.41830895306090    8.52082957689426
H        -3.95953573136503    6.64314165074703    8.69671489728301
C        -2.26462865810112    5.30459728307801    9.03731406438758
H        -2.75516530737624    4.72063635285622    8.25746175305694
H        -1.21834773273842    5.43513409060784    8.75969354314720
C        -2.67242000081381    4.29121400674482   13.12448068351912
C        -3.71283123000113    4.02294184059021   12.24142325577227
H        -4.69544125253265    3.80661860253134   12.63622204055853
C        -3.55161788440087    4.16072872274039   10.87606204219389
H        -4.40020700669736    4.03567358026745   10.22005386827845
C        -2.33727414722307    4.60615591091061   10.36538860558007
C        -1.23843029533944    4.56297977962372   11.21380607741504
H        -0.25043660537896    4.75559630569391   10.81679016722656
C        -1.38130501515279    4.36499113713151   12.58354480573730
C         1.32450456359635    3.55165296714307   12.50421276320032
C         2.20558125513829    4.39785118474273   11.83443947856645
H         2.17157760736639    5.46566860561114   12.04144701943717
C         3.14497385126591    3.88726938657219   10.96042596976340
H         3.82885705807123    4.55174156614796   10.45293770445210
C         3.21935339297774    2.51913500618057   10.75186555338798
H         3.95818640026536    2.11405076258593   10.07625412436238
C         2.35913520466008    1.67113002578357   11.42775565292442
H         2.42946091985598    0.60289560531791   11.28231139200178
C         1.41300997637627    2.18075566619468   12.30084987007885
H         0.76507954167233    1.50487539336813   12.83776427445047
C        -0.28351989478010    3.06958702016277   14.85113018622284
C        -1.01048132471472    1.93622866863155   14.48923636001520
H        -1.37800631662668    1.82786407861937   13.47764051116703
C        -1.28933106584400    0.96545489834776   15.43312794748130
H        -1.84569270758435    0.08440939556176   15.14734696696610
C        -0.86054651995190    1.12150843414837   16.74210798639244
H        -1.07840645914560    0.35802521705294   17.47429299315306
C        -0.16374620716276    2.25982168424898   17.11117641946579
H         0.15797815696500    2.39002690234686   18.13362081354169
C         0.12296276993057    3.23308660489900   16.17028987697410
H         0.67245924052891    4.12283913424645   16.44663689561531

