38
CSD_code = BUGFAL | q = 0 | S = 0 | Stoichiometry = C15H18N2NiO2 | MND = 4
Ni        1.29650341384833    2.93785830737816   13.05420484873608
O         0.93682161681044    1.20552134720993   13.55466634127810
O        -0.38154448343139   -0.56754793635074   13.46142906110578
N         1.63978809629956    4.67816449861842   12.46280961284243
N         2.97319049485519    2.87099927298836   14.21512995649798
C        -0.40441408628583    2.79922946677500   12.14913715187043
H        -1.08816610406229    3.29260261743076   12.86707158166982
H        -0.46861056911133    3.32725415519871   11.18579121683665
C        -0.81370745406186    1.32656985121915   11.99415627192657
H        -1.89563117151426    1.18589949326847   12.06611682206613
H        -0.48309595684114    0.92541137376397   11.03317038854903
C        -0.07729116508850    0.54635491100539   13.08964563998447
C         1.17392005219793    5.74727721017190   13.11185974525554
H         0.40944753535872    5.56653243511388   13.85751753538309
C         1.61335873382352    7.03331395400511   12.86003966785903
H         1.19862470309205    7.85903115007419   13.41791937945284
C         2.57924816136519    7.25572054901235   11.88461703726323
C         3.05515234981432    6.13471224429487   11.20725801420389
H         3.80199858801959    6.24170643691505   10.43531617228881
C         2.56561087227624    4.88344909017413   11.52062851685391
H         2.92010676070429    4.00699432557207   10.99188174301639
C         3.07722054427615    8.62434837679591   11.55743929216431
H         4.16501502563499    8.65350351459379   11.60032085000770
H         2.67546985978164    9.36257447932898   12.24669259129262
H         2.77969264959592    8.89568669978035   10.54467417469286
C         3.09205147534759    3.54696724303410   15.35545603044079
H         2.43628827847400    4.39982660394155   15.48833720429013
C         4.00013083660704    3.21101373784872   16.34258177351134
H         4.04753934487010    3.79295592909050   17.25083320517967
C         4.83851141935571    2.11687785637376   16.15980951243839
C         4.71598001075642    1.42235605386552   14.96015672461927
H         5.33956897158598    0.56462842416331   14.75979260410353
C         3.77864442942199    1.82489448473388   14.02816586076539
H         3.65853167443917    1.28368065751377   13.09771610399207
C         5.81161042945761    1.68826924599176   17.20770893435440
H         5.40864391724169    0.83078517771931   17.74748967513485
H         5.99553290635110    2.48657349625098   17.92273156251814
H         6.75475783873382    1.38380326513827   16.75802719555261

