26
CSD_code = BUGFUF | q = 0 | S = 0 | Stoichiometry = C9H12N2NiO2 | MND = 4
Ni        1.17293937168497    1.72743634364619    0.54356648678866
O         0.92575904420737    1.29332311843181    2.30521574380942
O         1.77510146328968    0.82358813194130    4.28987921391795
N        -0.76720474224478    1.66461130448257    0.06691947231318
N         1.34849887344718    2.32424004422676   -1.37171699402383
H         1.30315731026509    3.33868087063910   -1.25835819212443
H         2.21207431762173    2.11147118442061   -1.86451792991461
C         3.02553045249724    1.62778622777630    0.99894255390173
H         3.29985844505383    0.63023760481784    0.59988972057402
H         3.64988813370332    2.39251288537695    0.50795628080703
C         3.23973430087225    1.64016917105668    2.52187936813358
H         4.06278463061662    0.99312725249306    2.83493520969053
H         3.44558921613624    2.65022752783121    2.88212467458794
C         1.91439844880719    1.19636752133323    3.14570590714510
C        -1.77660456652056    1.54601635309446    0.92320728948269
H        -1.49755521468273    1.44979329366877    1.96490776068208
C        -3.09876931236328    1.53701757514131    0.50907727006003
H        -3.89201583729592    1.43693527227901    1.23208019368350
C        -3.37614050727049    1.65816613994354   -0.84352404741627
H        -4.39456032320373    1.65727831510375   -1.20196132409619
C        -2.32138642810338    1.78036057055279   -1.73396424333533
H        -2.49656638854716    1.87377038878684   -2.79493972115145
C        -1.02581227201410    1.77646216449961   -1.23815785154291
C         0.18494878459977    1.86134761206166   -2.13722412459894
H         0.39743555863884    0.85323988867417   -2.51063266550849
H        -0.02738275919536    2.50463323772054   -3.00299005186534

