44
CSD_code = BUGFEP | q = 0 | S = 0 | Stoichiometry = C17H18N2NiO6 | MND = 4
Ni        2.75489288440613   -0.04824805176021    5.22810178004255
O         2.86423498092625    0.90770607987931    6.78516403636087
O         2.14877971058792    1.31751016637632    8.83726810492169
O         2.49691116323409   -2.05811504998376   -1.25926830639626
O         3.51665413443148   -3.82095196935839   -0.31223589549804
O         8.99264106138315    2.83051362002092    3.82413393156367
O         7.77459090953460    4.61245027524018    4.43550439602077
N         2.55783814801678   -0.99210652803295    3.65160721590265
N         4.37040105427098    1.01009507700913    4.53222471318027
C         1.36620258529041   -1.00649236246896    6.17954984528396
H         0.50831160799776   -1.29446531414216    5.55527329815605
H         1.90176656324003   -1.92094591488457    6.49866622175937
C         0.90830796462532   -0.22475087533582    7.41775375239620
H         0.02247363996572    0.37610905215302    7.20186760561027
H         0.67821451105746   -0.88081580029676    8.26060990524709
C         2.04198504808169    0.74567362270610    7.77571339337205
C         3.16096670912551   -2.17209004770222    3.45908804496003
H         3.52882587065006   -2.67589038838841    4.34479310783191
C         3.31125043333587   -2.75008981685476    2.21475953036108
H         3.80330568372320   -3.70274078112142    2.10614224410808
C         2.80676743185236   -2.08535616043339    1.09812698531555
C         2.16942662874836   -0.86040420485888    1.29914225198131
H         1.76280050120176   -0.32963243054257    0.45280648732217
C         2.06471980544853   -0.35886098064972    2.57891205109221
H         1.55864443065401    0.58120391129882    2.76262650048232
C         2.91071528775685   -2.62791437461968   -0.28015441930820
C         3.65326130290152   -4.41230193345190   -1.59667946728412
H         4.08487193828343   -5.39631171099934   -1.43408879884167
H         4.30798479516677   -3.80496229720581   -2.22491042113204
H         2.67858787617082   -4.49343057742068   -2.08177276852584
C         5.53629656735861    0.44489631431106    4.22321961903175
H         5.53581245682557   -0.62799507658995    4.07090523712982
C         6.70878823659028    1.16507321721686    4.09125466278887
H         7.64212698113096    0.68395441906283    3.84440091152747
C         6.67526805587201    2.54248401159807    4.29063294520532
C         5.45820599034545    3.13454002007309    4.60988092378799
H         5.39134157106188    4.19715990030491    4.77534807979599
C         4.33740166509978    2.32929286367984    4.72044741566852
H         3.37720822397634    2.75398772690447    4.98517147928608
C         7.94155472507727    3.31904458295842    4.15414852318039
C         8.93632958078357    5.42525447870227    4.34328820936825
H         8.61877919183554    6.43700710459198    4.58065576862319
H         9.35267319378398    5.37761643817905    3.33500996889569
H         9.69337889818260    5.08399976483705    5.05201092942320

