75
CSD_code = BUGJIY | q = 0 | S = 0 | Stoichiometry = C36H30N2NiO6 | MND = 6
Ni        8.69903089459917    2.73589914706087    8.14756487972498
O         7.01329420101476    1.27408680662037    7.72727692607627
O         8.91020958244218    1.75167430476141    6.06627085416175
O         8.19158816000211    2.62088646013386   10.16197988384331
N        10.11224972339236    1.55799469128571    8.45438890655197
O         7.49337056356719    3.36893455429510   12.56403746431050
O        10.07046975640914    4.05855678770652    7.51966364563071
N         7.31121718768258    3.90816218250995    7.83211069828389
C         9.87739826892357    0.79450801057692    6.16677774484876
C         7.15166191754004    0.47697232131081    4.82785717558072
C         6.03027234817102    3.37027628651120    8.01915337969767
C        10.52949705045998    0.72072405419284    7.42268498695092
C         4.58360471997831    1.42867855893827    7.88617711822224
H         4.43394868353820    0.37543379742366    7.71032792687279
C         5.85478224039464    1.97640004481082    7.86878113607466
C        10.48313584297278    2.30139075924922   10.74662024166482
C        11.49579027094553   -0.27530929892525    7.58877255565988
H        11.96948935659065   -0.40954773868768    8.54865302699163
C         6.66646406178442   -0.31155310931126    5.87525463876237
O        12.31226703259347    5.82307495258793    7.43524134640957
C         8.81417689550937    3.07901828830404   12.37207140694509
C         8.00199267454650    1.72229908270590    4.98885241580075
H         8.53726022729250    1.91107623920527    4.04735871824230
H         7.34214406287333    2.58030445109763    5.16968518355008
C         5.86517982995245   -1.40986376571371    5.57501350332886
H         5.50159838343772   -2.02610806786640    6.38512274398424
C        11.20439769958470   -1.02799742894622    5.33153980618201
H        11.46194703579936   -1.69582020255011    4.52430378625567
C        10.21406103346316   -0.07636367316570    5.14405300510096
H         9.70627237669007   -0.02623700203185    4.19431289318959
C         6.79379091695156    0.14554750310926    3.52264327930878
H         7.15829488275252    0.75925531837847    2.71081621001757
C         9.79771047865468    3.19399728825643   13.31401486059231
H         9.57108085017501    3.53457781065652   14.31286299800729
C         4.91653818819080    4.14595896952201    8.33098286734439
H         5.03897622024048    5.19684306095611    8.54440871364481
C         6.99624473651736   -0.07839351305363    7.33368659849352
H         6.30722994836704   -0.65272846902368    7.96536003907117
H         8.01038557735260   -0.44414703531647    7.53690682184962
C        10.86105624040070    1.73526179169098    9.51286166533798
H        11.89238743913543    1.37973227419191    9.47869110380771
C         5.99102747281174   -0.94114631740556    3.23955880029653
H         5.73369689793965   -1.17141067087622    2.21706924408658
C         9.11859549753167    2.66078449127351   11.01829598137741
C         9.89240381787741    5.30438589014731    7.32940157156647
C         7.41905999275367    5.11886674071699    7.36383579054418
H         6.49739650996480    5.63974962731620    7.09609201995665
C        11.01397655794559    6.20154463316747    7.22820160127740
C         3.65545510219258    3.58072866900619    8.40077275525599
H         2.80629047490436    4.19928632365712    8.64775406749441
C         8.59181270843761    5.87964436993527    7.15150120252930
C        11.13417251561005    2.87346113924868   13.00506918658541
H        11.88580634466550    2.97704483783926   13.77256269808109
C        11.83802393592769   -1.12754511078591    6.55517761243582
H        12.59293128735095   -1.88188373374335    6.71642492665965
C        11.46379523897012    2.43443220093291   11.76099934558177
H        12.48713003994830    2.17965716477781   11.52342429043734
C         3.48467195688466    2.23352746886176    8.14707651804671
H         2.49930035828565    1.79404259959113    8.17221697968719
C         5.52752856756948   -1.73206307038504    4.27590243941465
H         4.90472539104447   -2.59009811409778    4.07460606672567
C         7.09787578549434    3.85905402105119   13.81652809511924
H         6.02601732050919    4.03680479458844   13.74020819129410
H         7.60400374667632    4.80005217394966   14.06067294808974
H         7.28718269143784    3.13190647386774   14.61466109970879
C         8.45356842234235    7.22944664416348    6.75766700001188
H         7.45968773470441    7.62304306296843    6.59775031017647
C        10.82417652004629    7.51078598721996    6.85593686520856
H        11.69613430275226    8.14054948693102    6.76628040218500
C         9.54882274688020    8.02700251267222    6.59901522322271
H         9.44458818324684    9.05828960291871    6.29968216984767
C        12.59350947096685    4.67744173312453    8.20958419993832
H        13.66044604698169    4.73592848888033    8.42918231492079
H        12.37940833416806    3.75721368541694    7.66088543637194
H        12.02821046428002    4.67211569961997    9.14535948948443

