39
CSD_code = BUGSUR | q = 0 | S = 0 | Stoichiometry = C10H20N4NiO4 | MND = 4
Ni       -0.03790619385096    4.66648847082763    5.86785234386978
O        -2.43671962515400    5.79041512302229    7.18963445349275
O         0.80597657657802    2.05436174960750    5.84918911466300
N        -1.67039517179766    4.70188448663473    6.91714469031613
N        -0.05543209971232    2.95363742145511    6.22621457368015
C        -2.04654190217146    3.57186000846359    7.39328554162854
C        -1.15478263180955    2.41250625024976    7.04914008364187
C        -3.27785877732131    3.43523448764373    8.21728150345383
C        -0.55775533117680    1.78305409155484    8.31584247034596
C        -1.91728484738374    1.36457803825378    6.22585750021148
H        -3.22517233039720    4.12848840762571    9.05693184557439
H        -3.41276477144964    2.42325805040031    8.58247879807183
H        -4.14242589178621    3.72940629748307    7.62201925519081
H        -1.32489535696021    1.28769577666624    8.90312782409302
H        -0.07827947726652    2.54954323761856    8.92172712106742
H         0.19182157401481    1.05335407409690    8.01757216495341
H        -2.69481670586720    0.89441043840188    6.82050333252049
H        -1.21233565963750    0.60664178100186    5.89196647961745
H        -2.36657072600140    1.83370642265818    5.35248276240050
H        -1.93764451878099    6.56726699276350    6.71151200190131
N         1.59466313527876    4.63111950995715    4.81868409030838
N        -0.02044860353621    6.37932103613306    5.50939443800357
O         2.36099499008979    3.54259032236787    4.54620574374687
C         1.97075550210815    5.76113239370786    4.34247322035951
O        -0.88179098794597    7.27861656768700    5.88652323778980
C         1.07897484766870    6.92047688916722    4.68658605974233
H         1.86187882363862    2.76572301331873    5.02426711804271
C         3.20205887574641    5.89779562379240    3.51846720150422
C         0.48202113598189    7.54997245570403    3.41987197535193
C         1.84145436884177    7.96838693478310    5.50991213689400
H         3.14959187396135    5.20421979683842    2.67907478109867
H         3.33671523290000    6.90965859826866    3.15292579235466
H         4.06669112637167    5.60404382484014    4.11386706924168
H         1.24918554180996    8.04539690568118    2.83267006567435
H         0.00261899842655    6.78350221792002    2.81390562817221
H        -0.26760386232874    8.27963107559449    3.71813392812196
H         2.61901257089082    8.43854308695432    4.91529147698258
H         1.13650402301918    8.72632992435474    5.84378278282305
H         2.29070627500913    7.49924821650045    6.38329939309339

