86
CSD_code = BUGVOP | q = 0 | S = 0 | Stoichiometry = C35H40O8P2Pd | MND = 4
Pd        6.63104338164839    3.52319699089410    3.34955090106949
P         5.81351866613016    4.47318140263770    1.52893047385113
P         7.88261647478270    1.98789132781532    2.35768083329418
C         6.50074037039397    3.88801034534754   -0.08511720553929
H         5.88211640299354    4.28761936357371   -0.88861537385739
H         7.51328480541633    4.27735211520351   -0.19628567873384
C         6.50477923595453    2.35745219057427   -0.11927940660322
H         5.61190829567220    1.98549653312108    0.38872808971551
H         6.46051335067740    2.02376430671203   -1.16095898867362
C         7.74601322869305    1.73446841312967    0.52016350684803
H         8.64160631939709    2.16776664180946    0.06952643350635
H         7.75806475343320    0.65900426000522    0.33164403314979
C         4.02811729917549    4.15288149389164    1.42439383279004
C         3.44050031629356    3.47024253613396    2.48200682381994
H         4.06843998448775    3.13179356378663    3.30772716897101
C         2.07256547531113    3.24251878618890    2.49376165305464
H         1.61916914020328    2.71907422584411    3.32102030887342
C         1.29390739580634    3.69546632846777    1.44504488636981
H         0.22713320940893    3.52484750367576    1.44513671691358
C         1.86414711131972    4.38195711112442    0.38294626483497
H         1.23243762966684    4.73142065046305   -0.41919211425835
C         3.23165918472382    4.62067563149802    0.36753202336953
O         3.89028783745699    5.30155745976931   -0.61437618425321
C         3.13996769981621    5.93851852172793   -1.61900223913222
H         2.61381441705909    5.21437878924417   -2.25011460372391
H         3.86142792501973    6.48536103062272   -2.22436474718656
H         2.41858873185893    6.64398687312513   -1.19538729604083
C         9.63282639619555    2.36883912166079    2.65150107474620
C         9.94437973540199    3.41229139356307    3.51177924205431
H         9.13575293677160    4.00240520108942    3.94447664507706
C        11.26928738527370    3.68478049698348    3.82038953038902
H        11.51189867862984    4.49080454892996    4.49521634629433
C        12.27585839039777    2.91646533632175    3.26520265529239
H        13.30985998023872    3.12129550570678    3.50194916375051
C        11.97945633884381    1.86804290493515    2.40533659229928
H        12.78365366531730    1.27824705532596    1.99276108561369
C        10.65603085298362    1.58368726170963    2.09982148886265
O        10.23450641088711    0.56968969800924    1.29133727502720
C        11.18198717089433   -0.35250923902660    0.81277040062973
H        11.90139459279800    0.12211349932880    0.13695850043264
H        10.61461988428667   -1.10216243912194    0.26345682497953
H        11.71971843572485   -0.83813121288949    1.63306566557809
O         5.53666052858448    5.01157530981558    4.37403220347042
O         7.61668278458772    5.75117665657049    4.42861497481079
C         6.42317214330882    5.83934486477645    4.73560481984111
C         5.93220984693245    7.02799872604105    5.55810723177544
H         6.72124915054367    7.37002355848931    6.22170410166574
H         5.04844061788581    6.75005590312701    6.12494684554680
H         5.67436078938855    7.83108706732494    4.86913138992600
O         7.30103785370413    2.62628564377896    5.14603482314624
O         5.24584858840195    1.85574474090121    4.90728827628308
C         6.29818740794725    1.96641818206224    5.54563596519846
C         6.46221776580513    1.25082959267749    6.88399597335404
H         6.71725192697072    1.97544485101329    7.65319770156116
H         7.27612990230851    0.53360627752254    6.79985855395383
H         5.54137069220506    0.73754853130670    7.14512254932844
C         5.92113243630462    6.27631302507163    1.55202928743201
C         4.86072866703330    7.15804200483620    1.67592576702485
H         3.84671893909109    6.79042889633412    1.63518392487720
C         5.10343030518688    8.50731203782316    1.87557262498776
H         4.27709368109626    9.19699982521182    1.96317419112588
C         6.40406228675146    8.96403771790827    1.99333986879591
H         6.59225963780740   10.01332524927465    2.16859640698653
C         7.47671762735581    8.08945698506898    1.91423646658119
H         8.47767584343430    8.46515128813232    2.05286187864855
C         7.23684698784862    6.74061876938620    1.69682444103694
O         8.16840182601230    5.76261204085788    1.59648951263575
C         9.51277967961498    6.11152096070604    1.85266104550110
H         9.85453357936626    6.88702118219871    1.15815441007237
H        10.09493686313039    5.20473779840147    1.70060448307080
H         9.62437389360232    6.44929377700231    2.88538411730325
C         7.72037206103435    0.35798848535768    3.12794303371795
C         8.67641695204348   -0.28919011256479    3.89191942028731
H         9.67163570193353    0.12112151946349    3.97285114568213
C         8.34709318187994   -1.45070583728331    4.57179056998807
H         9.09477717017515   -1.96027215863977    5.16136581434923
C         7.05393517218851   -1.93894218418749    4.51900842592484
H         6.79333442465059   -2.83312083889878    5.06617473375129
C         6.07473914577257   -1.28381903599892    3.78869028496313
H         5.06538489141870   -1.66263935123202    3.79551556400503
C         6.40771695821901   -0.13192091953499    3.09185487200074
O         5.57533524009818    0.61989341963228    2.33161437802184
C         4.19719968628110    0.30810989860078    2.37198386793643
H         4.01606549539505   -0.70982917670364    2.00998211064854
H         3.70141653252489    1.02018608894816    1.71456597150764
H         3.81666563673220    0.42608521052907    3.38900336780905

