108
CSD_code = BUGWAC | q = 0 | S = 0 | Stoichiometry = C43H52O10P2Pd | MND = 4
Pd        4.98300439852587    4.74401102661455    6.96657374938636
P         3.63540285528951    5.89998426266066    5.65265538806819
P         4.85564620380279    2.95895022423993    5.66284987171742
C         3.60639788945715    5.33207938981482    3.88757745799828
H         3.08365278633408    6.07880852146462    3.28575245814115
H         4.66422482807750    5.34581357165359    3.60545082735201
C         3.05782672499394    3.93646152672521    3.57379199936559
C         3.33011361170209    2.84580218171105    4.62271495789555
H         3.31214502877506    1.87461343287010    4.12296951824198
H         2.51829472318889    2.86262034797656    5.35555553752439
O         1.05725927606745    2.74679543960221    2.84441588445773
O         3.08321033474261    2.29227732231862    1.76347215839560
C         1.53677378951934    3.98034384064989    3.33523157306839
H         0.99443598937677    4.14678521528557    4.26802532075205
H         1.29256820481912    4.79505195934657    2.63835937186611
C         1.67366659631941    2.29192327612577    1.65331294505526
C         1.18845768061381    3.09128609900039    0.42758401126200
H         0.09725572102791    3.07501557075907    0.43909129455562
H         1.51056346512620    4.13134523151939    0.49894124752155
C         1.71852905197772    2.47496606632846   -0.86314039614702
H         1.36518446163109    3.05770858909717   -1.71651802941597
H         2.80979468770648    2.51367633496550   -0.85149197845357
C         1.26969651660784    1.02387536453437   -0.99166781781741
H         0.17892526095567    0.98150301953118   -1.03440378964465
H         1.66038312014431    0.59487467209114   -1.91632523753163
C         1.76631964980843    0.22197027712484    0.20613496929713
H         2.85692772239261    0.23588489852500    0.22387977759508
H         1.43602175186305   -0.81557948715252    0.13004934595879
C         1.24784185087159    0.82473300260211    1.50594387891431
H         0.15887072644101    0.79245931513918    1.54163899025747
H         1.63444139885736    0.27855218514606    2.36623940904268
C         3.64916569460215    3.49893996061814    2.21799181780707
H         3.50514243098685    4.30181817210094    1.47875307143204
H         4.71906877637030    3.30314723193560    2.30946059455570
C         1.95393425159552    5.92710565307498    6.32927638568039
C         1.81252550340835    5.48512258362769    7.63839413683577
H         2.68979555080019    5.09789092143071    8.16315652286648
C         0.57775154132724    5.56386195071035    8.26597423014216
H         0.46748679813233    5.23818496401142    9.28891745405438
C        -0.50943391588512    6.07167096081896    7.57818807942956
H        -1.47567188775493    6.13061598473904    8.05755627714873
C        -0.37926876038687    6.52650920040721    6.27354923475714
H        -1.24199954343188    6.93077177516771    5.76709171212001
C         0.85826646436892    6.47522388421693    5.64718165097000
O         1.12408187062631    6.93801276253430    4.39270600976833
C         0.09344535853373    7.57394574827679    3.67663641858697
H        -0.72715938935577    6.88355368160206    3.45502419443374
H         0.54300655015636    7.91045821838417    2.74340894634986
H        -0.29573640908309    8.44149566299202    4.21823181117593
C         6.33223384726948    2.83890576629423    4.61776146306330
C         7.38236034613106    3.69735782192958    4.91382536256887
H         7.26199269568593    4.41872357002493    5.72630822934894
C         8.56738381062131    3.61152963813730    4.19722710959865
H         9.39404238713376    4.26354135808083    4.43468627122284
C         8.68885862342269    2.67921948277251    3.18227246348751
H         9.60567232177911    2.61298438449514    2.61455716340863
C         7.65224708207297    1.80567663160283    2.88622515594831
H         7.78175800326132    1.07616047050303    2.10165267988125
C         6.47364159284573    1.86311361539449    3.61881389986941
O         5.41387524608437    1.02637714395844    3.47533618019181
C         5.44337098533951    0.05305707848647    2.46170037291784
H         5.53281798777068    0.51126176833589    1.47211908901616
H         4.49010871852210   -0.46812299458015    2.52565153447516
H         6.25934893661831   -0.66121174888487    2.61361733607355
O         5.07374054121261    6.45306868935265    8.21229765510187
O         7.04677387663789    6.40875374611214    7.22429824924016
C         6.25145488931445    6.88122904478761    8.04354292284235
C         6.65037999444237    8.08877805399589    8.88969943483588
H         7.72840033979895    8.21985547775921    8.86517944892939
H         6.30817337607004    7.95001311614470    9.91135044440181
H         6.16530709417864    8.97220082263830    8.47725582116315
O         6.28725165772552    3.64251386915534    8.19908905426029
O         4.41853689059889    3.74592472130430    9.36892903344647
C         5.60885915210776    3.43825185470904    9.24690458121324
C         6.33451555170812    2.71714135053663   10.38101946703611
H         5.80791200791928    2.87423182001889   11.31804712523398
H         7.35647056081662    3.07830029020901   10.45286459364050
H         6.35550344446261    1.65290553621867   10.15040931169329
C         4.04114798973185    7.66324924063926    5.57219015560141
C         3.27248328545052    8.68258812358505    6.11067264129908
H         2.28093593868622    8.47085459075051    6.48098394827777
C         3.78018450727432    9.96873406996643    6.19283173568431
H         3.17508863026493   10.76202483149508    6.60522639851612
C         5.07473745496201   10.22552350033974    5.77927111343726
H         5.48199455189076   11.22210546669990    5.86874680201623
C         5.87116943435588    9.21353032731581    5.26704878378415
H         6.89022129810052    9.43098837915102    4.99025829570619
C         5.35624313526986    7.92935243699133    5.15696375504491
O         6.00175446501379    6.85019013632818    4.66185176299526
C         7.36110297084134    6.99418524994582    4.29713074614439
H         7.49091739635436    7.81573677183356    3.58528623131376
H         7.64193476118391    6.05624545717436    3.82272283802660
H         7.97193210113618    7.15309402898306    5.18863899841252
C         4.91386188801301    1.41125363956646    6.59998402889751
C         5.96443752645391    0.50818943064882    6.58472037365558
H         6.76129029180741    0.62066222212269    5.86555797846076
C         6.00427163380537   -0.52876734993351    7.50218013369108
H         6.81975786684076   -1.23599526384033    7.48163702643400
C         5.01659717557581   -0.63499996879881    8.46444398314412
H         5.06060864424085   -1.42744133973975    9.19748903081872
C         3.97466873031694    0.27745786000772    8.51743433803083
H         3.24078815056840    0.19726330439249    9.30321966028285
C         3.91704282793367    1.30238308059454    7.58323424764717
O         2.96161923050801    2.25484610031560    7.50089754163372
C         1.94509663654698    2.26454268015632    8.48406309623901
H         1.45369736775407    1.28840971883113    8.54844686342686
H         1.22349135091003    3.01115030272773    8.15915811431520
H         2.36319360436112    2.55227859748400    9.45150468009800

