69
CSD_code = BUGXAC | q = 0 | S = 0 | Stoichiometry = C34H25MoO6P3 | MND = 6
Mo        1.08398835890736    7.28568060302091    3.48184254874199
P         2.24810571019834    8.98517895045008    2.29952808810745
P         3.73165277242853    9.66089941862911    3.78724833454925
O         4.23363905814532    8.20006742898559    4.36145966851208
P         3.12226806805576    7.04726213570603    4.69341336541212
O         3.09700654203941   10.47537199846503    4.82220761892989
C         0.20674981077874    5.91030822984437    4.53895804141348
O        -0.31945928705761    5.08561392224899    5.13104789883764
C        -0.56664504079206    7.47541231996163    2.46599631501501
O        -1.54255987951175    7.54883255548967    1.87685139559962
C         1.63310840008978    5.86828516269010    2.25220455763731
O         1.93170137641897    5.01544944147141    1.55507036924476
C         0.52125921264495    8.70199813260662    4.72569829220354
O         0.13228519569473    9.49917469338092    5.43602805647083
C         1.60831958914656   10.64860010267856    2.00460584162210
C         0.23902907770734   10.87751680493426    2.05658750152984
C        -0.25345959957854   12.16302710774898    1.90962161002372
C         0.61847531879342   13.22108859290329    1.71783225009177
C         1.98628335203377   12.99666542872233    1.66651553757676
C         2.48262820910351   11.71560176229333    1.80801347280482
C         3.30955958149661    8.62352542870134    0.87477473423509
C         3.31843787249885    9.37886271966707   -0.29290978940648
C         4.13592960720447    9.00733828902328   -1.34637974329580
C         4.93889333735643    7.88356741419683   -1.24729770922539
C         4.91852853048533    7.11624460560227   -0.09271594592782
C         4.10260820886844    7.48004411413982    0.96086236571371
C         5.34134272611299   10.29469139536080    3.22524697289944
C         5.62761454035363   11.60842751220481    3.56892967267247
C         6.82608591913735   12.17736376324869    3.17887241439777
C         7.73267929479851   11.43446054506252    2.43906568148103
C         7.44364632754695   10.12317155812689    2.09651821299202
C         6.24684995959335    9.54817534468161    2.48582069767009
C         4.14108476300711    5.57862276920177    4.39805787499143
C         5.47492556213671    5.62236636884005    4.01231118014150
C         6.15967650805075    4.44359717723851    3.77137382154790
C         5.52063005186862    3.22427739627005    3.91842294321837
C         4.19138656800263    3.17789330635977    4.31134593590767
C         3.50284799184673    4.35172080101239    4.54727517756215
C         3.14783348953264    7.09968610880923    6.50828972806580
C         4.37080837325163    7.20465332071791    7.16504340288155
C         4.40851809464227    7.26506538055947    8.54434760723646
C         3.22986520713756    7.21105908666008    9.27293376621843
C         2.01359744282504    7.09743299787856    8.62133713043137
C         1.96997976104198    7.04243237697970    7.23871766740248
H        -0.43509903231720   10.04582539283762    2.21792923416331
H        -1.31790279085935   12.33883933455700    1.95357710877224
H         0.23460503868720   14.22497381007045    1.61335328111686
H         2.66640240920739   13.82353504146574    1.52277352975676
H         3.55027553212274   11.53258126931294    1.76589126896015
H         2.68064164790524   10.24757792553779   -0.38011051978817
H         4.14016147010665    9.59617993209798   -2.25184673079121
H         5.57230374979590    7.59792671430529   -2.07382042758680
H         5.53249489927657    6.23051330092145   -0.01662705175191
H         4.07388245927217    6.87181772006383    1.85985571324013
H         4.90128460252711   12.15938966423964    4.14871675937870
H         7.05379289692395   13.19746293857693    3.45023065689420
H         8.66803368196371   11.87729602097572    2.13032071530454
H         8.15291205289349    9.54517972898577    1.52249305339048
H         6.02098462268627    8.52746260079382    2.21944858788161
H         5.97392173372139    6.57515318946463    3.90018213867486
H         7.19604085818594    4.47793758293354    3.46700671406604
H         6.05791051828784    2.30747187305314    3.72577872832857
H         3.69378713318303    2.22655439226252    4.42662584652329
H         2.46153300712315    4.33375340417184    4.84714431378983
H         5.28372266065526    7.24842170974031    6.58608875082843
H         5.35645854404748    7.35408875791750    9.05492733179707
H         3.26139125073451    7.26005665137238   10.35146447563127
H         1.09615015503114    7.05732022229845    9.18967670897071
H         1.02120493480229    6.96006624926942    6.72394524833126

