95
CSD_code = BUGYOT | q = 1 | S = 0 | Stoichiometry = C40H44AgN8O2(1+) | MND = 4
Ag        7.66645805539370    0.29547638817854    6.63566721642890
O         7.76643442338087   -0.49867566819398   10.74939739032130
O         7.77918775380681    1.24599686169606    2.55919512966208
C         5.85777808929889    0.20020666046492    9.44189623944324
N         8.43546597789018    2.29783417933163    5.60436647731227
N         6.00511841833680    0.75915341797061    8.26212400645005
N         4.89515725032109    0.79752775821616   10.19067183291284
N         6.94246487746973   -1.01336975103510    4.79764989459643
N         6.34255399343300   -1.61299616977112    2.74017727739244
N         9.38064893219918   -0.77499296197198    7.88674124577885
C         6.60821680620192   -0.59444657921652    3.59808745325316
N         9.16728999622213    3.72001580448003    4.05677502116750
C         8.85501832148163    2.43542196082067    4.36699778278818
C         6.58749836258001    0.85004997248314    3.21757164767545
H         5.78396764567570    1.06091335892025    2.50831421534286
H         6.43470576969032    1.43948969401143    4.13041485184053
C         9.59574133787626   -0.67078125900780    9.17863139033620
C         8.46033198748203    3.55338315950207    6.15599573679377
N        10.59098094542261   -1.48541638200714    9.61408909516546
C         8.78622932930583    0.21377085481717   10.06963879919459
H         9.40352842336356    0.65250277368886   10.85693486559630
H         8.35756146990116    1.01368606887086    9.45251479950882
C         6.90597842064280   -2.38345024533458    4.74578909307303
C         5.10029256162576    1.78882362045928    8.21365572274582
C         8.10725451770379    3.98597213999877    7.42929666849953
H         7.74914460050541    3.28143544618398    8.16398131288208
C         8.91722074982483    4.46769300562460    5.18391309810628
C         6.53345509511035   -2.77916079541921    3.44436971611386
C         4.51058342579924    0.48045425732576   11.54417702182702
H         4.51039262213389   -0.60532336346695   11.66953498069289
H         3.49074923315466    0.84250432963830   11.69134350723327
C        11.04305962778406   -2.17535673431059    8.51334701200241
C         4.39293315280205    1.82998598050413    9.43305121374644
C         6.70541623422053   -0.93480654956436    9.91636101212090
H         6.12709192891770   -1.63059113338976   10.52858986818194
H         7.09442645430403   -1.45951814601612    9.03447789998109
C         7.18326096793823   -3.32904752432762    5.72652018127601
H         7.47402194602312   -3.01522296852381    6.71754179321926
C        10.47361850265401   -2.21128655480890    6.14591873330572
H         9.87504744008938   -1.85495307478321    5.32174117308014
C        10.27263245235752   -1.71027152474475    7.42723355376481
C         8.92011011232021    1.29913716905158    3.39923213099401
H         9.77042730838286    1.40502130751008    2.72183544942746
H         9.02347232620295    0.36996413079497    3.97403076830074
C         4.84024684887417    2.71254116992398    7.20770864294490
H         5.39246077915352    2.67671104293381    6.28103005778041
C         5.99458399029910   -1.51713673732850    1.34360609159791
H         5.30523620597820   -0.68013136623583    1.20519091322737
H         5.47468705267069   -2.43742206292752    1.06877471556683
C        12.02363888961406   -3.14340999008552    8.34333830146512
H        12.61437156167969   -3.50817752657142    9.16896822939834
C         3.87094775275263    3.65950342686403    7.45154772999003
H         3.64185096032026    4.39580987664921    6.69669065699327
C         6.42873795667292   -4.11969365848574    3.09839675542997
H         6.14787174015859   -4.43232636153389    2.10488455090658
C         3.41550089343208    2.78706772224655    9.67036022362226
H         2.87161659771584    2.82850793512404   10.60103177786409
C         8.22401572269661    5.33147835273292    7.69738661316477
H         7.95649164179515    5.70637563930830    8.67329549106670
C         9.03445363868042    5.82264567889529    5.46311054087833
H         9.38031253666499    6.52941465273852    4.72516068607253
C         9.60725043502435    4.23389459191255    2.78279174559636
H        10.31441156403435    3.52815490114072    2.33914313710981
H        10.13261503983070    5.17307540329511    2.96889768017150
C         8.68170515025772    6.23302627298600    6.73147069844270
H         8.75745652181675    7.27855116646897    6.98686896390955
C        12.20900415313518   -3.62859759039457    7.06590360989426
H        12.96043325153979   -4.38328624599170    6.89308111088469
C         3.17026112640838    3.69434475836695    8.66123452550705
H         2.41893920936109    4.45467233937491    8.80789395823181
C         7.07969460610269   -4.65615814380724    5.37454930752201
H         7.29028246240537   -5.42063450673998    6.10643935372177
C        11.05418444090913   -1.66095389103807   10.96879378744754
H        11.07500317890413   -0.68808070255945   11.46669866111837
H        12.07615464134677   -2.04328590155212   10.92142577093967
C         6.70738440382059   -5.04363121127567    4.08349858094892
H         6.63927014277082   -6.09548596033175    3.85314598346245
C         7.23237132307486   -1.32464424360371    0.47235951710117
H         7.74020546172729   -0.40151315941550    0.74119237696260
H         6.94149154683792   -1.27322555105026   -0.57271710274259
H         7.92029098530544   -2.15703870068826    0.60196354012731
C        11.44700567230128   -3.17197570607580    5.98599833791784
H        11.63064886446035   -3.58773448803431    5.00729102325628
C         5.45478957599574    1.12338518638217   12.55583684348480
H         6.46411581938243    0.74212767829294   12.42112392464294
H         5.12482645593515    0.89324291139618   13.56455521624312
H         5.46526781345977    2.20375904846590   12.43067549146558
C        10.16076560355836   -2.62533165784638   11.74338187081331
H         9.14990705375859   -2.23006653973826   11.80790618386525
H        10.54963617439416   -2.75931165635563   12.74850111581057
H        10.13080670063786   -3.59386175891966   11.24944781800802
C         8.43132921619246    4.46027833318124    1.83716823120154
H         7.91894345006281    3.52078403344338    1.64445277198645
H         8.79005026580955    4.86374858187554    0.89484995124172
H         7.72584507306196    5.16476169992789    2.27179975620664

