66
CSD_code = BUGYEJ | q = 0 | S = 0 | Stoichiometry = C27H23F6N3O6Ti | MND = 7
C         5.42429155464935    3.58010421541538    3.23333505249579
C         4.84093272744818    2.31238112986759    3.37577535275831
H         3.76629241045052    2.24605020271675    3.47126644845506
C         5.62816348889296    1.17279278210151    3.38406581230028
C         7.00717224510116    1.25674798319788    3.26007171745264
H         7.61222469781127    0.36497735615215    3.26728112077040
C         7.58950141114215    2.50658174197486    3.12415502690808
H         8.66275706339885    2.57661311852258    3.02256312301613
C         6.83219131626929    3.66591937239569    3.10837144265206
C         7.48484360848337    5.00903489795268    2.92082423682968
H         7.30181744970397    5.34871272606004    1.89535159260517
H         8.57411706537306    4.90241747406203    3.06011013202054
C         7.25238282618792    5.64496065980268    5.20961180160415
H         8.31381456965680    5.81555739741614    5.45661106475128
H         7.05403536791062    4.57391635623517    5.30912109801333
C         6.37168309486242    6.42167108014702    6.17952471265481
H         6.53530602296793    6.05061300599795    7.20522534388810
H         6.64659172902501    7.48008353416223    6.15956018219956
C         4.20226870464612    7.38384270426838    6.44090043958968
H         4.29801200930200    7.30761227292011    7.53729262964644
H         3.14753940690678    7.24758076541425    6.17743804311832
C         4.63632762542085    8.75695495364912    6.00358470232951
C         4.81784784231829    9.77266208899835    6.92758006155299
H         4.66528510306418    9.56490977384012    7.97670170542453
C         5.18421824443967   11.05133717613009    6.54109421094055
H         5.31796517769753   11.83156604541199    7.27252655632930
C         5.37114503267370   11.31466786930344    5.19122174468831
C         5.20308780569843   10.32145826607884    4.24161369051458
H         5.34820385482583   10.52509928659728    3.19016896010298
C         4.82842461847648    9.02509942246812    4.62672211818100
C         4.95223076748418   -0.15492006614948    3.57004962011517
C         7.65932422983350    7.30024955684897    3.52946544402519
H         7.44160940373402    7.59547205620957    2.50400357961448
H         8.74758634639992    7.18343353973867    3.64548564747055
H         7.32060859504326    8.09404587394330    4.19387556275866
C         4.43412923988000    5.02199209938993    6.28517368583512
H         4.98053787724901    4.18841069585289    5.84577796987895
H         3.38659401863683    4.93286505546464    6.00096357373565
H         4.51441284707213    4.95844016410604    7.38101987947561
C         5.81561924190161   12.67907336828611    4.74933630407194
C         1.66459331788598    6.27551814325935    3.66157092556888
C         1.82530696458425    6.50106376948483    2.15751495507546
C         0.83269888085695    6.61234421800697    1.19189425009893
H        -0.20321807297388    6.53683451777878    1.48292956607123
C         1.22209352636993    6.81901089268951   -0.12563444405773
H         0.47787402640850    6.91067724683366   -0.90317627623442
C         2.57281090264015    6.90660869386408   -0.43885944222837
H         2.92277675566579    7.06523969357360   -1.44676503735937
C         3.49331181037111    6.78222737467739    0.59426551671312
C         5.01982849706204    6.83272424533409    0.51610443684771
F         4.50732003904678   -0.31676011589370    4.83447602413850
F         5.75319480732760   -1.20027305705808    3.32283936008269
F         3.87641916539481   -0.30370111064804    2.78013687106536
F         5.34639293562393   13.01981408740638    3.54069906312431
F         5.44281128537877   13.65320522203993    5.59252940679252
F         7.16165220993396   12.76066747583759    4.66187742774671
N         6.96771260848894    6.04504042411722    3.83052030051731
N         4.96324940821216    6.29827399316660    5.79938830165390
N         3.10711800777697    6.58722211777414    1.84391995198455
O         4.67847782538734    4.65395618901446    3.23661733213326
O         4.68221181989560    8.08626345478422    3.72899517740010
O         2.80627966461211    6.21949046633731    4.23652617090097
O         5.53892294082365    6.68273723560723    1.67591858833032
O         0.57483717004436    6.17783539810341    4.18469029831971
O         5.60547929813835    6.98729554926999   -0.53459878556764
Ti        4.57234756300319    6.38619587168863    3.37129867010604

