105
CSD_code = BUGZEJ | q = 0 | S = 0 | Stoichiometry = C52H40N8O2P2Pt | MND = 4
C         9.29650055073926    9.64034689387630    3.24004033320546
C         9.79162535688301   10.06772820426202    4.52631230517944
C         9.81324710272819   11.42708460820664    4.84392442878302
H         9.49640574030277   12.14027143294158    4.09765426494339
C        10.23064253208575   11.83497925018506    6.09102892233692
H        10.24804756414883   12.88636928784106    6.34295879454572
C        10.63159851708587   10.89401576757823    7.04250297212033
C        10.61460437921402    9.53471418910704    6.71524371778705
H        10.93123542304751    8.82338123463846    7.46363594533176
C        10.19993603220140    9.12344062860303    5.46890111459513
H        10.17518986344567    8.07910139982775    5.19880095110528
C        11.06476326092582   11.32140044427507    8.37278910958716
H        11.05132101963100   12.42266878919720    8.51206301510734
C         7.18509646366853    7.18634514312731   -1.63500526068246
C         5.99528795426961    7.10479794479289   -0.92034059677099
H         5.67213989479462    7.96537973952108   -0.33767542953303
C         5.24012671785946    5.94784752708790   -0.96198483301944
H         4.31447479101613    5.88298908212092   -0.40943526595644
C         5.67432850224026    4.86873296472521   -1.71558824699415
H         5.08414355962177    3.96505386323885   -1.75299298874107
C         6.87002889241072    4.94004638640873   -2.41344521941632
H         7.21075619451680    4.09135554215442   -2.98838113684519
C         7.63196511109564    6.09380961651332   -2.37168494255992
H         8.57809734668576    6.14415089501658   -2.89422256848753
C         8.07761831473672    9.50861736751530   -3.18878229658025
C         8.30667250631017   10.88324322445462   -3.21619997413632
H         8.52842610382275   11.40328127899842   -2.28627833953375
C         8.20577770108684   11.58230286410921   -4.40299270336059
H         8.36103566219772   12.65071837874721   -4.41559603226211
C         7.87634505088741   10.91065508923728   -5.57013134165278
H         7.77340096087451   11.45717802522265   -6.49531337236121
C         7.66168291843612    9.54305136242982   -5.54831140637212
H         7.39575472009825    9.02495471613794   -6.45784650217763
C         7.76131657134327    8.83801924679469   -4.36132673207964
H         7.56213794788757    7.77708270966172   -4.34239145461540
C         9.83368525588917    8.21781170001716   -1.34591939432605
C        10.13393843037798    7.12989780594036   -0.52985718389095
H         9.33553611399600    6.57964411949220   -0.05557919676565
C        11.45177272703505    6.77404922217163   -0.31415956960778
H        11.68067338154401    5.93383734530338    0.32381820077472
C        12.47572138113591    7.49795205742192   -0.90426257497445
H        13.50464107933144    7.22006268585657   -0.73013317417016
C        12.18001816971334    8.58170191259272   -1.71453320820250
H        12.97661984055999    9.14823114132189   -2.17437060278737
C        10.86368242779792    8.94642696067280   -1.93306336256917
H        10.63526440873482    9.79444295711895   -2.56441297159470
N         8.71695331774300   10.45772601896130    2.34926066607013
N         8.35870831593770    9.64906731712327    1.38402920242845
N         8.68159872324118    8.41412620465089    1.63704823754814
N         9.27494044133304    8.37427962728913    2.79443853678142
P         8.10365411815606    8.73755830395528   -1.54188687574614
Pt        7.11008092903286   10.13828487112865   -0.00228347363560
O        11.41145053705420   10.59147573391581    9.26831654598218
C         4.91915697499864   10.62297912075882   -3.24213691740063
C         4.42423965853008   10.18776419051713   -4.52583199652105
C         4.40834205636802    8.82693376632030   -4.83744139949558
H         4.72922765470131    8.11840422059388   -4.08845642208056
C         3.99139996760513    8.41172814471222   -6.08228011484009
H         3.97854513040427    7.35918359431560   -6.32963512644273
C         3.58502519502178    9.34672082823644   -7.03732523920258
C         3.59612803162751   10.70749723994415   -6.71597413426915
H         3.27528084075432   11.41411205281867   -7.46702794400474
C         4.01053842933739   11.12608756719185   -5.47199227902712
H         4.03081004123229   12.17167058667914   -5.20638041854466
C         3.15265835592924    8.91164170243577   -8.36537141524437
H         3.17062993670614    7.80983889619675   -8.49980004388889
C         7.04025543230724   13.08900484653840    1.63831678599087
C         8.23099841565250   13.16963358391865    0.92509753618072
H         8.55254938582025   12.31002271975608    0.34003738418210
C         8.98902972524812   14.32453910741538    0.97100592726646
H         9.91539861320976   14.38869254472358    0.41958033658838
C         8.55678921920510   15.40245591605132    1.72743318118811
H         9.14926939367604   16.30447662546434    1.76821962878554
C         7.36012378025253   15.33214632789011    2.42376004608504
H         7.02095662675126   16.17996186064734    3.00089215471267
C         6.59529011709736   14.18048246036915    2.37769117628461
H         5.64844217646146   14.13090209492009    2.89900539441851
C         6.14044566517552   10.76469301981446    3.18468673582765
C         5.90728252073963    9.39066883770320    3.20783162633342
H         5.68400151516085    8.87423688576085    2.27627757864797
C         6.00579293546862    8.68766452123834    4.39249191711771
H         5.84732107105782    7.61968944287058    4.40179188945349
C         6.33694791858542    9.35477517030773    5.56174019117098
H         6.43801076564384    8.80513463429791    6.48527959865130
C         6.55567397642292   10.72180631044926    5.54416746490668
H         6.82292274677638   11.23630146711055    6.45535366746079
C         6.45845237188692   11.43078290938746    4.35933792250028
H         6.66093749340536   12.49114590317809    4.34362734248187
C         4.38960503938071   12.06557725466353    1.34306551508343
C         4.09413683421347   13.15343556996033    0.52514750680075
H         4.89504808243511   13.69972601433532    0.05049300957558
C         2.77787149456558   13.51430533660720    0.30831552449249
H         2.55260847722960   14.35438405121424   -0.33112028858460
C         1.75076545944592   12.79544972600901    0.89914341537145
H         0.72304288230500   13.07720155405941    0.72412619942527
C         2.04171313626116   11.71178729609809    1.71124430510509
H         1.24259954123489   11.14923474867672    2.17161573216917
C         3.35647668553156   11.34201161665357    1.93092053545109
H         3.58121165803216   10.49406757741877    2.56368849367526
N         5.50303831579750    9.81190688840979   -2.34856232524544
N         5.85962423316195   10.62625549555533   -1.38738936653289
N         5.53177282030214   11.85876585892831   -1.64552523491029
N         4.93637411120128   11.89108466356850   -2.80211500062845
P         6.11781794352748   11.54036597799387    1.53997094423657
O         2.80084831934222    9.63607018541757   -9.26337003280905

