32
CSD_code = BUHDUE | q = 0 | S = 0 | Stoichiometry = C13H11BrMnN3O3 | MND = 6
Mn        2.34639531535454    2.01035218155901    5.66383371353453
Br        4.55546497667567    2.31002821128823    4.73673053230365
O        -0.24515537710122    1.54020730047263    6.93049143196012
O         1.90166310564569   -0.36392287474943    4.00820173160329
O         1.09454764921729    3.62889649593719    3.56283266815756
N         2.80829535851980    3.58739853501168    6.99613859964133
N         2.85771288865220    3.52422652346616    8.33748852112058
N         3.43173887120475    0.92799629549382    7.35133089263051
H         3.62727111752139   -0.05863476186603    7.17560063459908
H         4.32267012573183    1.43647017687444    7.30164646444432
C         3.16307920539144    4.81622624984433    6.65896268811718
H         3.21817653435657    5.11654577007818    5.62900727379999
C         3.45445425735897    5.56924384162270    7.79944023611237
H         3.77736608485739    6.58800738125304    7.83894910697607
C         3.24308111627290    4.71345936545064    8.85133122270588
H         3.37304874186587    4.85624884533352    9.90455603315483
C         2.49100910965069    2.38397464404996    9.07838074390912
C         1.81683738747674    2.54024290608956   10.28148542858564
H         1.57414063385379    3.53397832956300   10.62671788872082
C         1.42236326172559    1.44212804191620   11.03362672821245
C         1.70381146200574    0.17205061645561   10.54737029376621
H         1.39575249422399   -0.69699561333738   11.10800296084974
C         2.37144674745965    0.00385583182056    9.34925432987465
H         2.57447494139003   -0.99140364294103    8.98051267150806
C         2.78097630825317    1.09851860716484    8.59986468862454
C         0.68885621628342    1.64188885411927   12.32221536447188
H         1.24057266533866    2.31412408207654   12.97717774135824
H         0.54104423760899    0.69607532881358   12.83551907237074
H        -0.28659363541297    2.08828207608037   12.13276670404569
C         0.78421006485058    1.73746332347850    6.45359800219931
C         2.09033498303542    0.55974270923514    4.66352854877717
C         1.58385315073152    3.01332436834473    4.40023708186409

