37
CSD_code = BUHFEQ | q = 1 | S = 0 | Stoichiometry = C15H14MnN4O3(1+) | MND = 6
Mn        1.53215634037123    1.84031425425079    3.17058761024151
O         1.61679649411550    3.18922811455662    0.56553710989249
O         4.03676677168736    0.49158577936682    2.42341495836258
O         3.05333301983449    4.11859190482717    4.22685819220303
N         0.29000232229287    0.35408397546435    2.44826173906648
N        -0.89005835794320    0.55741918852685    1.83545498366470
N        -0.43518430334810    2.72278331757047    3.61472672126769
H        -0.92872106366367    2.05805637035800    4.22142311913644
H        -0.40025922565682    3.61362551659177    4.11695491264905
N         1.43489245446860    0.96971873815399    4.85470449798958
C         0.46467001143251   -0.96052404675684    2.50885645293059
H         1.34765064542957   -1.38511726707019    2.95018117147090
C        -0.62190972873487   -1.62187745983648    1.93647397023086
H        -0.76592137239253   -2.67741691920844    1.84358668490835
C        -1.46270816610891   -0.62023816452416    1.51238422674156
H        -2.42200791680797   -0.67459711428420    1.04023418925191
C        -1.39240532017747    1.83892358195247    1.52677294714762
C        -2.08633714882196    2.03742193213808    0.33886435985270
H        -2.22181728910384    1.20917751033347   -0.33922799098603
C        -2.58151337182494    3.28837205548691   -0.00185631236453
C        -2.35704869039432    4.35001361303517    0.87074219013375
H        -2.72581053574969    5.33198588274711    0.61976604460492
C        -1.66537594084998    4.16488545157642    2.05150366153654
H        -1.49467453446879    5.00253688595485    2.71220031315061
C        -1.17644696825437    2.91265595025559    2.39703276865092
C        -3.30768816749294    3.50225602979560   -1.28764011030393
H        -4.15805608493732    4.16417819524826   -1.14325742484238
H        -3.65537701989050    2.56284620650354   -1.70764180956326
H        -2.64245699323153    3.97321846173783   -2.01102924991643
C         1.56172374233996    2.65868640531869    1.57425209852095
C         3.05930024737315    0.99626685674842    2.72524169598158
C         2.45358257580705    3.22622471395491    3.84568664857558
C         1.46836434772538    0.41717568977112    5.86359821778329
C         1.52603064294985   -0.25958895973125    7.11409473559006
H         1.48846589580970    0.46414853163693    7.92915110066431
H         2.46181422975370   -0.81632445508943    7.17976192170886
H         0.69062845846313   -0.95369672736105    7.21044365406695

