74
CSD_code = BUHIPI | q = 0 | S = 0 | Stoichiometry = C22H49IrP2 | MND = 7
C         4.09424987834540    3.77407796874870   -0.20368102188066
C         0.60683586431859    0.08295369636238    2.80702991420327
C        -0.33276518545522   -1.03293140852474    2.34977276864186
C         0.15097124671843    0.61840102667935    4.16202057214140
C         2.83842373126934   -1.37667248219815    4.24430253869239
C         2.88565865754026   -0.64680398232756    5.58502556730598
C         1.98918086343994   -2.63832347234220    4.37174968415537
C         2.58737597744662   -1.44045667841299    1.37869632847650
C         2.38791874061917   -0.67057944090882    0.07822146855432
C         3.90860172147968   -2.19989218258968    1.32635398698521
C         5.75508537723358    1.00554906308315    1.77800913502517
C         5.49440941364030    4.34219048984824    0.01108286072114
C         5.75004856347136    0.53637558109383    3.09225557348934
C         5.62814275805350    1.42635497436844    4.18748506618490
C         5.50888122126073    2.82190804169679    3.90126284957088
C         4.17059709030763    2.48524516632495   -1.01329482019785
C         1.40882684133955    3.29634281429353    0.73458715526087
C         1.00201228267550    4.04623666416822   -0.53241353037019
C         0.41670693801138    3.58768041637025    1.85800716469886
C         3.32207846218426    5.19249827967733    2.14342457483253
C         2.73761151995505    5.32151301383748    3.54736310661082
C         2.84214936225113    6.36543412064093    1.29087849896949
H         2.87626645693995    2.28656721598125    3.96299682199801
H        -0.05147231912995    3.84422148099360   -0.72832533986549
H         1.56373727203679    3.71704238584197   -1.40217695499872
H         1.11836192654612    5.11977160298233   -0.42626704049210
H        -0.55025611002249    3.13303483650415    1.64396186114356
H         0.26229973936460    4.65820958704767    1.96162274580917
H         0.79496226503420    3.19061992437601    2.79775520833534
H         4.41069013739533    5.26698186842930    2.25861042662483
H         3.15158634571514    6.20417061751503    4.03314789326619
H         2.98979948405275    4.44839635925144    4.14058653018056
H         1.65770645714854    5.42656948762669    3.52511435246649
H         3.51453571877222    4.50437164759685   -0.77514472506861
H         3.18009641148063    7.29598897542253    1.74728533119247
H         1.75651668528493    6.39703674271133    1.25306744045162
H         3.22923427659384    6.33559688911234    0.27646206973230
H         0.51277717376670    0.90506791650867    2.08957392134820
H        -1.35910817356117   -0.68309098062611    2.46327274579886
H        -0.22424069871133   -1.93355430211507    2.94539150747193
H        -0.19092355096047   -1.28676291241126    1.30273282223975
H        -0.80137789253987    1.13690269606871    4.05895733146896
H         0.88370531617842    1.31777786939167    4.55682441686579
H         0.01411188341095   -0.19159817650406    4.87318642463549
H         6.05632292491455    4.29757558358325   -0.92190027276613
H         3.86717445959144   -1.68512604210319    4.01647282832905
H         3.49717296164228   -1.20596013877098    6.29269528420384
H         1.89372172137880   -0.53921323689823    6.01295525147762
H         3.31175077877072    0.34590043900634    5.46219963590076
H         2.43553395397546   -3.29297462194511    5.12111226106635
H         1.92854798759820   -3.19373738360410    3.43947318290257
H         0.98359485176400   -2.39739291962860    4.70600275755774
H         1.78091364569305   -2.17027823715965    1.49179771719575
H         2.42963780412171   -1.34223117558870   -0.77913971780621
H         3.17264978358167    0.07362907846200   -0.02644470466319
H         6.03770953768091    3.76943516890678    0.75614510510352
H         1.42814373316610   -0.15821508352605    0.06402928645244
H         3.94647789295298   -2.80356873218212    0.41896490597297
H         4.02670056525642   -2.87020130974903    2.17431134816094
H         4.74923524669079   -1.51381857728236    1.30464918038253
H         5.82504812556614    0.27337600118371    0.98103575181543
H         6.28769264762982    1.91473085483350    1.54159710179739
H         5.75781866222846   -0.53315959004221    3.29080887180557
H         5.64219471636404    1.04921979383519    5.20402490276729
H         5.38876662610157    3.47556236614491    4.76018811707399
H         6.18663388014044    3.25796583325432    3.17142353859344
H         5.46551422475582    5.37995257998104    0.33263323987862
H         4.65013204025894    2.66730937776204   -1.97515880974361
H         3.17902829996986    2.07832837427528   -1.19871757883208
H         4.75476999139960    1.74358281843740   -0.47665297528491
H         1.35573663305598    2.22231760491688    0.51216359286289
Ir        3.89749242855186    1.75846183342064    2.93817791899886
P         3.16983764696609    3.46098067290573    1.40764490329740
P         2.47503609732293   -0.21397473404306    2.80453214282474

