109
CSD_code = BUHQAY | q = 0 | S = 0 | Stoichiometry = C38H66NiO2P2 | MND = 4
Ni        7.43978071223337    5.30467437112030    3.96651275664570
P         7.48865464746349    3.38386135755924    5.30817006765070
P         5.54318775206475    5.56558851628009    2.63408859796774
O         9.72034410892738    5.03991580874558    2.12917706218316
O         7.32918772743497    7.70829804035715    5.64130717618461
C         8.96974335592928   -0.75029309037040    3.46989308407553
H         8.87485097216032   -1.71800895529156    2.97254938616136
H        10.02866204099090   -0.58738572652975    3.68411008854046
C         4.83875818584254    7.27365800090727    0.36803082794925
H         5.32416456683311    6.64764337308991   -0.38175594206601
H         3.80937739809839    6.93171596558894    0.47444416442016
C         2.60419565286265    6.70102016388399    5.38521456743188
H         2.58440407392877    7.54189909827110    6.08188798308267
H         2.65984242716423    5.78364980423239    5.97411312085581
C         6.20710280281372    3.11499143328775   -0.68516104898618
H         5.38765483824572    3.46305127112927   -1.31998853317737
H         7.09613800370919    3.01590333055408   -1.31188360763974
C         8.55694032485046    1.71397327159669    3.24911889050085
H         8.18067258543109    2.50310623133329    2.59370288042292
H         9.60598822186476    1.92980432404664    3.45559204917209
C         3.87214581014955    5.64839105050749    3.48781811604192
H         3.84720416849749    4.71473963081150    4.06792828875099
C         7.73866847040873    1.68954629785684    4.53917968918135
H         6.72095411215656    1.40644675000583    4.23981306845495
C         6.11991087593166    3.02005347798232    6.54847392385983
H         6.59543091808835    2.61983766224336    7.45305920046113
C         5.84549130528250    1.76381589161868   -0.07955506808634
H         5.63256962095439    1.04185859275353   -0.87116491971681
H         6.69686718429029    1.39239738626763    0.49292538030586
C        10.22048972140601    3.78306236557481    5.69308168944355
H        10.38021404911572    3.00561190566729    4.94544527297782
H        10.09518946281108    4.73400911070647    5.16483368011918
C         5.22872726590346    4.30007569040505    1.29978237030753
H         4.39483989809521    4.64763705401303    0.68104170816142
C        11.44420028994437    3.86352646070287    6.59958253604311
H        11.59478452848145    2.90108712429629    7.09684770627767
H        12.33181105096216    4.07088111965795    5.99776837137720
C         8.46173257187001    0.35839622389264    2.55301440903442
H         7.42011766658021    0.15303064893927    2.29184995630712
H         9.04477338296813    0.37364670348543    1.62927298096388
C         1.37802259914495    5.55786771461963    3.52464605891498
H         1.41077468185667    4.59646623945802    4.04407466879383
H         0.47450095087325    5.57253248598368    2.91058781828227
C         4.63489719651100    1.90031470208464    0.83789661668874
H         4.40910717080032    0.93715996831237    1.30235342595421
H         3.76464475148881    2.19305156848864    0.24389682065685
C         8.94534467854426    3.50314139778291    6.48704719534535
H         9.03283744810987    2.53884641685138    7.00071326433249
C         4.87714537769561    2.94935928230121    1.92031857541929
H         5.70440665527728    2.63993802452213    2.56452023314040
H         3.98208949304013    3.03309662693467    2.54043246346819
C         2.60973889432519    5.69547502758707    2.62872302389905
H         2.55115565429267    6.65154013571489    2.10665978685445
H         2.60200519250574    4.89551459628786    1.88739164989502
C         8.77101735419063    4.59154866506092    7.54550081145016
H         8.62858101356002    5.55395508790447    7.04738489282442
H         7.89619540732885    4.38871908442947    8.16437158897134
C         8.28437833606986    0.60403994012081    5.46538748319758
H         9.33431297035617    0.80060543852412    5.68880304592007
H         7.73221326436747    0.58103960699422    6.40738242127326
C         6.46450522527608    4.13687948678553    0.41745478149705
H         6.74909876800274    5.09116199946631   -0.02755730160973
H         7.30069086830817    3.80277178850514    1.03643240820472
C         5.42595638997670    4.34362238879231    6.87554278418832
H         6.15194385986063    5.09291311683888    7.19311032953301
H         4.96413846883770    4.71233788806511    5.95850614422370
C         3.98224000643426    1.83966806679466    7.14629929705054
H         4.44170410556145    1.42008758470840    8.04502227305093
H         3.23619078989241    1.12490288203107    6.79046544811742
C         5.59309623096892    7.19132590335025    1.69550955502824
H         5.13155876375719    7.90165395054786    2.39405223248478
C         7.38071879139094    6.71730788815945    5.06285027287381
C         7.05303373372402    9.10128188599167    0.97268815316456
H         6.60987221148307    9.75846976852959    1.72521129230646
H         8.08478270054493    9.42275540675131    0.81588517220064
C         6.26671721950416    9.21836526213233   -0.32927405854106
H         6.25488874578344   10.25674034837641   -0.66749101462093
H         6.75575797737529    8.62080210927880   -1.10250600867705
C         1.32866440336648    6.68738135259851    4.54856702544979
H         0.45768295560633    6.56642159748469    5.19627486932639
H         1.22610356620241    7.64204200032697    4.02683346087444
C        11.25634043594500    4.95144327198860    7.64911350736783
H        12.12469519537160    4.99301629412928    8.31030517606765
H        11.16298396584596    5.92023881769258    7.15352456070302
C         9.99478702055416    4.67209250032684    8.45612241605770
H         9.84272852301836    5.45915440324476    9.19822587886127
H        10.11036164472131    3.72600565499562    8.99233954438852
C         4.83934004005122    8.71818942756426   -0.13260825297372
H         4.29001689344267    8.77931930385321   -1.07520930318018
H         4.32834632797326    9.35633871009492    0.59295344812156
C         3.83093478475411    6.80927055785925    4.48356823059740
H         4.74133457974343    6.81701956077087    5.08741383312356
H         3.77912226707909    7.75862042232180    3.94591985198642
C         5.05814881814305    2.02651152494574    6.07593459855439
H         4.59898563748021    2.39701274970654    5.15550888034065
H         5.49669293642843    1.04980570868161    5.87079098009374
C         7.03301149343620    7.66390314040790    1.48265312651495
H         7.58179962264092    7.60048698090640    2.42830412651041
H         7.53913210374481    7.01744062645927    0.76231883053404
C         4.36075089038588    4.16980095008305    7.95183177049338
H         4.82697524371223    3.81534879043375    8.87496369536552
H         3.89143713341990    5.13270899674195    8.16586356490970
C         8.81691560920067    5.11086051971829    2.83234347213786
C         8.18502686669827   -0.75741114172992    4.77816478749924
H         8.57312750896333   -1.53422223212473    5.44103463258801
H         7.13668635257849   -0.98877928208947    4.57184323097407
C         3.31170881875802    3.16187959789465    7.49697862623601
H         2.79133504705938    3.54665881718807    6.61620862748677
H         2.56798661390157    3.00856290524893    8.28209726558358

