60
CSD_code = BUHQEB | q = 1 | S = 0 | Stoichiometry = C21H27MnN6O3PS(1+) | MND = 6
Mn       16.22420792197659    3.17680306867059   11.15501870175271
P        13.60503170550794    3.17729115534384   13.47828231368604
S        12.16901898794484    3.17871968262946   14.75010361495777
C        17.47095240934944    4.44543920867305   11.03002442809763
C        16.01969715214728    3.17667966795008    9.38376422794827
C        13.70819624969187    1.79617600705313   12.31797909316795
C        12.86490824789240    0.72288851985622   12.23036604295594
H        11.99895821069651    0.47379332324715   12.80906623841738
C        14.44278716579391    0.57049558412913   10.70216678338982
C        15.19983959669796   -0.01635285393740    9.55562898671790
H        16.05234417906057    0.63590059230022    9.34118128897286
C        14.30847810266010   -0.07598388875455    8.31070813784341
H        13.92945974052937    0.91214115578842    8.06119037315986
H        13.46542715576768   -0.74753964236234    8.45728351873384
H        14.88826087515739   -0.44007180031429    7.46769283303973
C        15.73139443221721   -1.40534211551772    9.92283080004296
H        14.92060571872827   -2.10915444192828   10.09710730333879
H        16.35114762289261   -1.35683440014281   10.81490862469255
H        16.33917196568849   -1.78670886328973    9.10759194916972
C        15.29730371778975    3.17756159907662   14.11068780298920
C        15.69308184880487    3.17946101002746   15.41993843375903
H        15.11141967312928    3.17831657566028   16.31909038624383
C        17.45423961790673    3.18314071315945   14.09826940082085
C        18.90242254189545    3.19087481811605   13.73107619562200
H        18.97688613267820    3.17515862903799   12.63909206684537
C        19.57095994175648    4.47011153350455   14.24520514239802
H        19.56032322343042    4.51527504166577   15.33195552529009
H        19.06839306088871    5.35110184845586   13.85334439303076
H        20.60559692848275    4.49489364582007   13.91606380088967
N        14.68806432316360    1.69010237962015   11.36008607015964
N        16.40408142218054    3.17990698267820   13.29594038025593
N        13.34495694193206   -0.03229010500771   11.21043772879822
H        12.95220088098589   -0.90108072647831   10.88115526577427
N        17.04951399529699    3.18285650481811   15.38789997719030
H        17.66075081447378    3.18467019350085   16.19031830095173
O        18.27654603245414    5.25736117005583   10.93959250610486
O        15.90298217092211    3.17790659593270    8.24230700549350
C        17.46634359546597    1.90282605120701   11.03586641328851
C        13.71050640929571    4.55842260548924   12.31779036889370
C        12.86900655125260    5.63319735715569   12.23115665251584
H        12.00237587738274    5.88215200198181   12.80889946374595
C        14.44954147296516    5.78672580910296   10.70586810693450
C        15.21182258844151    6.37682360085496    9.56445874442948
H        16.05634960963760    5.71697762383956    9.34187649295075
C        14.32074124891714    6.46142145894892    8.32094736089619
H        13.92804972400442    5.48117432827304    8.06166851212506
H        13.48718924049029    7.14320724955566    8.47442528139395
H        14.90517904190168    6.82591404520704    7.48132903979650
C        15.76032918700324    7.75500950052823    9.94748054193029
H        14.95798855936081    8.46539602677724   10.13374886570834
H        16.38228573014213    7.68794004290455   10.83682078303687
H        16.36984969665017    8.13994168187638    9.13522986311290
C        19.59787392300143    1.94259499653417   14.28341063558733
H        19.59530111935825    1.93351230434811   15.37111566357728
H        19.11006464319664    1.03958135736639   13.92437856210685
H        20.63087784387253    1.92644811462315   13.94859995654704
N        14.69202577976169    4.66522247404553   11.36156824199523
N        13.35179604112535    6.39000567328607   11.21371283429562
H        12.96074273082199    7.26001476269189   10.88563157152783
O        18.26844867737887    1.08682256436369   10.95226040090179

