67
CSD_code = BUHRIF | q = 0 | S = 0 | Stoichiometry = C32H31ClP2Ru | MND = 8
Ru        1.50871937689131   -0.04301053429041    2.06481290631819
Cl        0.97068677176051    0.82504733189357   -0.10010024848807
P         2.83390210280198    1.70645486280903    2.57416020003764
P         3.29014393197051   -0.73081300874671    0.87423078591719
C         4.47262314792299    1.57433093092730    1.70637503427588
C         4.27306686061563    0.78840790437835    0.40782239222811
C         5.59489071572813    0.50174164033029   -0.29249183850801
C        -0.13120940326818    0.07993379510389    3.61002246851680
C         0.91711327043238   -0.76856685332897    4.08875497806493
C         1.00322567031436   -1.88262948875617    3.22083742060529
C         0.04160136271465   -1.71475114707321    2.18640503538333
C        -0.67116347778615   -0.51510640141131    2.45422238227279
C         2.36770547947263    3.43506643104358    2.21507601466960
C         1.15370366370506    3.71513239921359    1.60348768486677
C         0.78866626010822    5.02862478874433    1.36075544512588
C         1.62890775075987    6.06243291160789    1.73601636354592
C         2.83747449285341    5.78601014618941    2.35837391693885
C         3.20740475759201    4.47777271737340    2.60099865737118
C         3.23949021490910    1.89664895761342    4.34271530719408
C         2.24095150107572    2.48005618801668    5.12231338643087
C         2.38831973120389    2.59335120971598    6.49019284091965
C         3.53786641920432    2.11812038635684    7.10258020017723
C         4.53074528614726    1.53093766117835    6.33793809471840
H        -1.52385659664955   -0.15376300390339    1.89338368139548
H         5.17427585237089    1.02865106569297    2.34504945196244
H         4.87579953131607    2.57157338442071    1.50538853626027
H         3.60227388412905    1.36155713063143   -0.24936359635581
H         5.44111048763361   -0.12830670514942   -1.16640204982072
H         6.05341132925442    1.43425426658752   -0.61877103047458
H         6.28674756308193   -0.00308716593962    0.38055194025380
H         0.51273939156865    2.89670457038960    1.30411038223447
H        -0.15315298493552    5.24421611701783    0.87812734375529
H         1.34409921399199    7.08752741326887    1.54798846935603
H         3.48902942285656    6.59475412253957    2.65737202422165
C         4.38370883780352    1.41408939625444    4.96587229707250
C         4.55406773074491   -1.72486110196202    1.73301199002835
C         5.49763687765301   -2.50223686887372    1.06840733473809
C         6.45845879817912   -3.18724918566637    1.79021187237604
C         6.48970086242092   -3.10035492957341    3.17330641029434
C         5.55086859942635   -2.33014527226317    3.84012641660481
C         4.58559616948030   -1.64950874728858    3.12093497609147
C         3.02319168015503   -1.66371626234910   -0.65504316995573
C         2.92528006806147   -1.07016979052205   -1.90878199040601
C         2.60516746221487   -1.84349376260119   -3.01085378775759
C         2.36785705807835   -3.20071883288851   -2.87067499858639
C         2.43952375199734   -3.79159137018034   -1.61868302054106
C         2.75882020375390   -3.02535489950363   -0.51481654525977
H        -0.53900124226242    0.93165171917945    4.13763133035805
H         1.42373598199814   -0.65831747848978    5.03977473183080
H         1.61830503040824   -2.76026910379930    3.37559479727684
H        -0.22849886541798   -2.45512199000881    1.44486679391460
H         4.14187304551469    4.25748334314555    3.10154900644141
H         1.34792813270442    2.84956662029357    4.63385978604701
H         1.60881671050723    3.05023780922627    7.08253151574591
H         3.65720474116699    2.20387650064686    8.17255020813153
H         5.42766174622633    1.15843519766136    6.81196815660747
H         5.17006783843617    0.94586601187093    4.39237535156723
H         5.47233368386608   -2.57585168647654   -0.00964798755456
H         7.18844610118919   -3.79201987716772    1.27180562583297
H         7.24317350998850   -3.63759799762577    3.73042252079677
H         5.56895472025882   -2.26423871544080    4.91864161921891
H         3.83315387091791   -1.05104176655454    3.62496615112192
H         3.07377607562118   -0.00690145463092   -2.01874688104860
H         2.52994146307578   -1.38096702894806   -3.98414527454081
H         2.11415328379962   -3.79754187890544   -3.73462115057906
H         2.23856965765670   -4.84731675659257   -1.50480067823742
H         2.80641343267910   -3.47289386444770    0.47097201097868

