43
CSD_code = BUHVOQ | q = 0 | S = 0 | Stoichiometry = C24H16ClHgN | MND = 2
C         6.27363472039265   16.01172349924175   17.86434903472712
C         7.07563194731067   15.11241506249974   18.58705709943707
C         7.08023325714682   15.15485759117359   19.96850287532033
H         7.68489859070104   14.46063412521860   20.53720010893259
C         6.32294379918259   16.10537548383672   20.65356734433587
C         5.55568627496498   17.00819349237942   19.92523991110184
H         4.97818189944673   17.75555657044041   20.45057859251238
C         5.52029725773415   16.96807376239628   18.54656972637802
H         4.92824398445605   17.68607974467832   17.99747908171992
C         6.33139820117311   16.15384352501016   22.15011775814942
H         5.41283194974709   15.71593581978337   22.54189893163685
H         6.38617670204186   17.18209373835355   22.50193448226102
H         7.17283884284101   15.59729509794210   22.55439648892322
C         5.52811114619523   16.30541811920418   15.63225661234331
H         4.59390950862896   16.79776686924502   15.92825193488110
C         5.68285679015282   16.05186018605089   14.22139632956697
C         4.51803842566826   16.04119578014661   13.44289038698893
H         3.58478586766628   16.33944243590446   13.90053807965117
C         4.52690347748531   15.61389544547035   12.13742057873318
H         3.61131645404022   15.59829416103681   11.56393846748006
C         5.73623952698307   14.64052583380855   10.22174720909974
H         4.80645619503889   14.60669591117208    9.67157847599866
C         6.88657352497504   14.19239980023413    9.66511254094618
H         6.89490932420054   13.79214492299347    8.66110279539450
C         9.31221822402281   13.77117816395866    9.83041099214105
H         9.30330175121825   13.35286053148410    8.83394772073860
C        10.49373595955070   13.83369341529282   10.54633924379425
H        11.40730263865184   13.46180202457613   10.10569802284927
C        10.51477488688358   14.37259728283947   11.81928619925374
H        11.44077091079353   14.42474683563924   12.37302204794524
C         9.33258547933941   15.45808435768703   13.69530204168339
H        10.27752988857272   15.60086379423710   14.20070043945786
C         8.17617236554746   15.87430803886746   14.27194852900455
H         8.20672917968339   16.39828522056131   15.21675629264855
C         5.71102744380889   15.15938536039550   11.54645087015233
C         8.11705284504122   14.23812105573500   10.38160008532315
C         9.34288728177789   14.84973497676337   12.40964482739788
C         6.91868131960105   15.70937917783454   13.62088888351503
C         6.91765782369055   15.22026842056108   12.28891869148450
C         8.12356242256006   14.77230985042366   11.69429371112233
N         6.36772841744826   15.87182552630030   16.49147133039042
Hg        8.09271900464536   13.85595783900598   17.06414170018146
Cl        8.90706448898860   12.41148114961645   15.34915352440131

