107
CSD_code = BUHXIN | q = 0 | S = 0 | Stoichiometry = C49H54BPPtS | MND = 4
Pt        5.77098275927410    4.58606389158093   13.88708675353316
S         6.93918231483022    2.81183815793680   15.28578338789366
P         5.18707361111532    2.68492731292351   12.61471835351058
B         5.08080503438060    4.10286749375603   17.35364560249531
C         6.71313067689202    2.14867101501479   16.91698226692612
C         5.24241694851513    5.98836381356200   12.46160751331790
H         4.75894652275376    5.48906482935672   11.61571802368054
H         6.10779154751505    6.53629641586710   12.08282373559014
H         4.54044290689967    6.71446436327948   12.87876515699336
C         5.81162451698826    2.37077093402610   19.11076087707655
H         5.20453426960173    2.93168637548911   19.80210818415391
C         8.11616388271668    3.66058074315279   10.00013170146191
H         9.02719616381815    4.23820789244916   10.05397388272485
C         1.80023434083640    0.39215602632830   12.17094200896832
H         1.38069074902777   -0.51781486269634   12.57663042301296
C         6.84738017608274    6.06805703833990   14.74039947480197
C         5.92157392492271    2.86318862781875   17.81099674823921
C         7.76382040219237    3.02618769227303    8.81951690154941
H         8.40000464085752    3.10599398786936    7.95017080866094
C         6.59058905435317    2.29361797345866    8.75247115841919
H         6.31243737425115    1.80179874482271    7.83111770837571
C         6.79965798354427    1.27574168879691   14.42583782384824
C         8.22926413563538    0.24603753572940   16.23628500283945
C         6.30148798363885    0.61513078124916   20.90218541789226
C         6.07572913273419    1.21240542597622   13.24173027160338
C         7.36193958390031    0.96605249944804   17.26047837488542
C         5.45355008138251    1.49346593445662   21.82601495323308
H         4.43688523658763    1.58957307187601   21.45181861576237
H         5.88947965378518    2.48409419699040   21.93182998420952
H         5.40613282517247    1.03954472009021   22.81397792554733
C         8.21230774845244    5.81407479761945   14.89523096695576
H         8.64607996279430    4.89757877526705   14.50602147579327
C         6.67376271145726   -1.11198602121728   12.98999395459222
C         8.10415215646338   -2.84755437707091   11.92618297954095
H         8.59909209718624   -2.07819249527616   11.33712185561435
H         8.11337980158820   -3.77599415816571   11.35945214147886
H         8.67677273324796   -3.00120523861068   12.83668578688026
C         6.42137289686560    1.18869021023825   19.49784043067424
C         7.70351662294653    0.49423223673964   21.51597646223983
H         8.18563166444152    1.46920282990089   21.54385966688873
H         8.33338009083784   -0.18080048748441   20.94312644514931
H         7.63584313054284    0.11316018797970   22.53273049170607
C         1.08161902673796    1.13164903995757   11.24671978052427
H         0.10527205067604    0.79743367787093   10.92758354903025
C         5.64417454042053   -0.77024433922477   20.82516424992669
H         4.65818040913743   -0.69319941160810   20.37116221424598
H         5.53238891367497   -1.18784002864722   21.82353813578469
H         6.23831429734309   -1.46144556759330   20.23344795273899
C         7.44169470863735    0.14487882571508   14.93728108453478
C         5.89944707765394   -2.33281515317183   10.90687864175684
H         4.85702604095295   -2.06731663172122   11.06937030434532
H         5.92507912340538   -3.29708514772003   10.40336301239505
H         6.35657902167329   -1.59746745493855   10.24839230457757
C         7.17662262538733    0.49817093357739   18.55206738873726
H         7.64221389150028   -0.42591844387759   18.84757331154987
C         6.04822856860832    0.02692094678655   12.51617944802511
H         5.51565095576992    0.02103361614782   11.57954167233639
C         2.86256966696723    2.73158037957530   11.15055982625077
H         3.27992514830386    3.65396487844398   10.76801046416853
C         3.60491271471736    1.97617106277954   12.05652828660728
C         3.40330567315808    2.60239412606832   16.10428797247761
H         3.73129864576593    1.78871402664246   16.73934206518230
C         6.11686368122928    2.82160558036289   11.04592348206866
C         5.76869026689821    2.18555612515314    9.86073611599925
H         4.85024301034276    1.61871687905272    9.79218160571335
C         7.21338916260515    8.18681902881707   15.86910231049994
H         6.81271695506141    9.12075627216337   16.24051335232102
C         8.68597902781484   -1.12735977019437   16.73673126910059
H         9.26840438567748   -1.01427978020148   17.64797670414265
H         9.33703343800046   -1.59482695303318   16.00151929741470
H         7.84056538718968   -1.78349386545900   16.93397993853885
C         3.05139533427859    0.81462246982351   12.58336237784041
H         3.60156705749006    0.23787481241864   13.31375731791896
C         6.37579264496931    7.28675142354914   15.22900017233514
H         5.33558546914374    7.56104850802851   15.10667908755228
C         7.29683105547414    3.55720724956721   11.10741912401598
H         7.54928461085506    4.06663509338644   12.03477322289675
C         2.37063256752286    2.39114406391135   15.21149188752440
H         1.89270177173732    1.42329881349234   15.15567070460600
C         5.27463586190175    5.50047225229181   18.04504990703102
H         5.70369229036716    5.43081868465458   19.04227277141884
H         4.36352354610962    6.09189094970173   18.10127984351329
H         5.98100633865701    6.07851790022554   17.44528677455213
C         7.33968092614646   -1.03148519893062   14.21270827907471
H         7.81069567517201   -1.92144057562637   14.59232741106913
C         5.97892749675882   -3.50123235280523   13.09796386313267
H         4.95918739021749   -3.20305109228926   13.33323604472551
H         6.51239208965127   -3.65741256695760   14.03167877438224
H         5.94618413229558   -4.44810462655535   12.56341889956336
C         4.00601072113277    3.85983391434966   16.24762120085766
C         9.05435752942611    6.70755127880394   15.53593365293533
H        10.10517563696149    6.47341353526223   15.64350424684900
C         1.94436158277762    3.42112417119811   14.38644731662970
H         1.13768917627502    3.25341732443650   13.68713038765913
C         8.55612073842937    7.89836156246215   16.03295660339080
H         9.20952667065096    8.59850369782345   16.53432212285135
C         9.50895076693877    1.07225970481794   15.98890831838253
H         9.28669223278501    2.07580785861495   15.64069678935356
H        10.12565177957283    0.57880283353424   15.24025724655282
H        10.07574126256062    1.15205518323299   16.91407622280992
C         6.65891183477261   -2.43084861661737   12.23286980162947
C         2.54652106016611    4.66390618022763   14.47187051497600
H         2.20243011125253    5.47276633972256   13.84353699191680
C         1.61351152984598    2.30785727884142   10.74102639549069
H         1.04986677729365    2.89479646299477   10.03026532637092
C         3.56292584810777    4.88846754507936   15.39523164089415
H         3.92141001577192    5.89555450388074   15.55968131759601

