64
CSD_code = BUHXAE | q = 0 | S = 0 | Stoichiometry = C33H23F2N2O3Re | MND = 6
Re        7.05216032495367    3.58578403968441   10.23654238443406
F         6.06520833085149   -0.40960554079491    4.45690586832403
F         8.05629294082900   -2.88745204239021    8.35898720097176
N         5.68587793700576    1.95298245169341    9.41627495190299
N         8.12167078468178    1.83528843583640   11.20760971569192
O         8.99223515273819    3.80492814230018    7.81281914245814
O         5.09646374551005    5.67779662950736    9.07510087284831
O         8.66136139280628    5.86447913215093   11.57498390635247
C         5.62277104949289    3.20385848392748   11.83732549625294
C         4.74241106887544    2.19516463476432   11.55944346499925
H         3.97132677237799    1.86998834506024   12.25058971261436
C         4.79128775928882    1.58612081160265   10.28251160954570
H         4.05092053435446    0.82912553270755   10.02267001201236
C         8.52707217789031    1.72852535372832   12.43053048862838
H         8.86406859845260    0.75095221573131   12.78560837107513
C         8.57369282158039    2.79232474362733   13.36949165221322
H         8.30860295202957    3.77267621645163   13.00785378115687
C         8.86600519487920    2.60199694504429   14.67291456301334
H         9.08398785499809    1.59822403478482   15.02169253725475
C         5.74185128177700    1.33800065170080    8.16603160218876
C         5.48726657008138   -0.02546939572351    7.99862697892669
H         5.23281190302859   -0.63709313598053    8.85166629136015
C         5.59818310084492   -0.61664254283295    6.75579130943418
H         5.42284415485547   -1.67264231391551    6.62336227856002
C         5.95012952479862    0.16564769949017    5.67138049986303
C         6.19073584694872    1.52268156357259    5.80150409503858
H         6.45471147177932    2.10741393058083    4.93483244981265
C         6.08995371007599    2.10127302055133    7.04921478764537
H         6.26174572168122    3.16152732426216    7.17191373835804
C         5.55608748913687    3.81088741686753   13.16453812355990
C         5.64494530215240    5.19777530252663   13.31402713480321
H         5.74178441555148    5.81061988561704   12.42733888083161
C         5.58752350634472    5.77738774680155   14.56517198666243
H         5.64058668970601    6.85184423536145   14.66142654223383
C         5.47669023788186    4.98617120529873   15.69793118256629
H         5.45049413317086    5.43898902370592   16.67794502690058
C         5.41039832667537    3.60945538798385   15.56775571255302
H         5.33321329874202    2.98726127328174   16.44823504821374
C         5.43486985117707    3.02761292936018   14.31535424173062
H         5.38994628284854    1.95057223002677   14.22362858038362
C         8.10249238702497    0.63158410370102   10.47132937291892
C         8.75801634412644    0.53988908127127    9.24468463526476
H         9.29138000567370    1.39595508450332    8.86204555625365
C         8.74986037988381   -0.64262233777684    8.53252373460856
H         9.25536714567097   -0.72503930367591    7.58400126682003
C         8.07789934658482   -1.73422720170297    9.05342037521173
C         7.41813027164051   -1.67154681247197   10.26782271081316
H         6.89872918814164   -2.53920760881891   10.64381944831301
C         7.43937553649434   -0.48679754305138   10.97805901180366
H         6.90977915700496   -0.41167247207641   11.91789263985321
C         8.84358939023025    3.62629062052853   15.68889530222460
C         8.83725450208849    3.24272369887851   17.03502101442309
H         8.87340601831858    2.19170858659956   17.28555548051321
C         8.76546418242693    4.18572959557138   18.03983206174957
H         8.74989484190187    3.87217060439043   19.07333440435962
C         8.71618578863998    5.53406379865683   17.72227140618891
H         8.66135273544829    6.27292641462906   18.50780136709647
C         8.74460136066781    5.93068237079519   16.39378949799471
H         8.71709631016410    6.98077136870521   16.14466261928688
C         8.80482832237226    4.99189903894120   15.38465836833903
H         8.83436094876873    5.31964449808053   14.35795389024339
C         8.28930963450467    3.65721813591648    8.70708819317435
C         5.85652533620800    4.92065795852074    9.48689768033914
C         8.08311065319701    4.98876631598898   11.09420773884078

