105
CSD_code = BUJBOZ | q = 1 | S = 0 | Stoichiometry = C40H62AuN2(1+) | MND = 2
Au       -0.00001123851602   -0.00012196940103    0.00001316148908
N        -0.70823075400351    0.43081904255094   -2.82229052284276
C        -1.27960309479962   -0.03770610760789   -4.11514316900394
C        -2.38614625130801    2.61931645082489   -1.76989521029504
H        -2.70593740014352    1.60026341114780   -1.99269022188053
C        -0.45124778872117   -2.90371267104563   -1.95534986460769
H        -0.37251719238672   -3.00896855950382   -0.87573489230509
H         0.54834743920678   -2.78355392954292   -2.36785850789370
H        -0.88495530716001   -3.81446142395041   -2.36058305642884
C        -1.33798945302464   -1.71090360780944   -2.31424935541910
C        -0.14292666824593    1.73593195631237   -2.64609339441717
C        -1.47952632142823   -1.53638690796481   -3.84052932643673
H        -0.71298218959391   -2.11857708996726   -4.35230143816347
H        -2.45017954682400   -1.87652977412096   -4.19356572541044
C         2.17222614175304    0.77386690499245   -3.19242808336096
H         1.59496316348315   -0.14295952109086   -3.33665210849747
C        -0.33203955726758    0.23017597975091   -5.27949217813530
H        -0.09001113996518    1.28893148790594   -5.33879120296069
H        -0.82065810038377   -0.05963865096799   -6.20618725187278
H         0.58641021517226   -0.34207077679447   -5.19471498550818
C        -0.94162949157476    2.79048348900734   -2.18383815116232
C        -0.72107322836984   -0.41948074290609   -1.85053658614540
C         2.98260565625092    1.05453314547209   -4.46136345052504
H         2.34233227585106    1.36364628951928   -5.28300241547006
H         3.52112252198123    0.15872218086754   -4.76151102481479
H         3.71279456589151    1.83989637782237   -4.28859508495264
C         1.23224727400478    1.91232554119966   -2.86060286616996
C        -2.69631676748326   -1.87755719808250   -1.62195786214637
H        -2.55870517459156   -1.98936551434235   -0.54956988800850
H        -3.19074612364335   -2.76856899046077   -2.00007970574154
H        -3.34189679532156   -1.02067355363067   -1.80045915014994
C         3.12593248405437    0.52174473335295   -2.02042818555535
H         2.56581010444305    0.26209899893342   -1.12313290599034
H         3.72945209655692    1.40104602463104   -1.81182709796646
H         3.79362798698833   -0.30208849038981   -2.26073564205239
C        -3.30910298251010    3.59931156462706   -2.49993642142565
H        -3.13178969782263    3.59275070333292   -3.57243300790555
H        -3.15913588230596    4.61364373427926   -2.14139215242134
H        -4.34772182923692    3.33129501990934   -2.32265250952762
C        -2.52738199474906    2.81065588542154   -0.25680960063281
H        -1.92914128000348    2.07346223162873    0.27573045811539
H        -3.56823939027642    2.68629902518460    0.03207372287203
H        -2.20362468499986    3.80302973014118    0.04471150323325
C        -2.60478910290105    0.66127448879387   -4.41655845083695
H        -2.45852580908686    1.73311207503371   -4.51161869658062
H        -3.35157902363398    0.46598757196826   -3.65198384301884
H        -2.99088477040148    0.28833883548466   -5.36184835964473
C        -0.35863693783582    4.04362838458383   -2.03767941251307
H        -0.96095031870193    4.86938961874841   -1.69502077341384
C         1.76712270287238    3.18399511783354   -2.69889067582645
H         2.81958532211283    3.34124387557571   -2.87130111995653
C         0.97770828968168    4.24882170323107   -2.31367802575220
H         1.40906352806114    5.23164081711418   -2.20425694078670
N         0.70822936778823   -0.43081402895568    2.82227848498672
C         1.27962013984546    0.03772549325375    4.11511759814178
C         2.38615827811925   -2.61929545010606    1.76985093505425
H         2.70593826933425   -1.60023324290512    1.99262224072291
C         0.45113756866443    2.90372530020071    1.95536096518536
H         0.37239751320267    3.00900628770397    0.87574975452013
H        -0.54845185793768    2.78353184815083    2.36787343390129
H         0.88482513603006    3.81447607102151    2.36061077029403
C         1.33790928520500    1.71092763852802    2.31422641535198
C         0.14294838989861   -1.73593995404621    2.64610248007808
C         1.47948092432421    1.53641403755209    3.84050420363948
H         0.71292187769832    2.11857183626546    4.35229127504230
H         2.45012609867898    1.87659264446878    4.19352801778067
C        -2.17220790589068   -0.77390855897804    3.19248086151997
H        -1.59495655112982    0.14292642152861    3.33669644157528
C         0.33209680800579   -0.23019613101612    5.27949047023458
H         0.09010331438107   -1.28895956904079    5.33879152714171
H         0.82073185060177    0.05962963585195    6.20617329908096
H        -0.58637391326913    0.34202121865406    5.19474227971931
C         0.94165659267678   -2.79048201974109    2.18383731792876
C         0.72102181794144    0.41948328053640    1.85052318087401
C        -2.98256691722545   -1.05458328876567    4.46142735371574
H        -2.34227820838089   -1.36369314232119    5.28305573991437
H        -3.52108721437042   -0.15877770622755    4.76158495557349
H        -3.71275157856492   -1.83995231811609    4.28866826215707
C        -1.23221787963191   -1.91235473859779    2.86064463098222
C         2.69622276296887    1.87762481753086    1.62191770147362
H         2.55859210446562    1.98943943490371    0.54953283224953
H         3.19063396528583    2.76864668133166    2.00003986457226
H         3.34182835424458    1.02075705110207    1.80040206007563
C        -3.12593022075255   -0.52180222756141    2.02049044632771
H        -2.56582018196652   -0.26214354179280    1.12319086255774
H        -3.72943368591380   -1.40111549073305    1.81189318524342
H        -3.79364029488729    0.30201681357987    2.26080618947204
C         3.30915193884765   -3.59926598357274    2.49987896265510
H         3.13185991052010   -3.59270243694493    3.57237903184330
H         3.15920132524901   -4.61360439597737    2.14134471740784
H         4.34776100638195   -3.33122660091652    2.32257279001022
C         2.52734877608927   -2.81065617516310    0.25676374745432
H         1.92906214837295   -2.07349357453334   -0.27576777074129
H         3.56819236308676   -2.68626837890106   -0.03215679684153
H         2.20361789380408   -3.80304759822586   -0.04472890156977
C         2.60483595178352   -0.66121611887054    4.41649157169689
H         2.45860817011894   -1.73305819185972    4.51155809095189
H         3.35159420761022   -0.46590838766173    3.65189141637664
H         2.99095144695696   -0.28826747965831    5.36176820137765
C         0.35868214902115   -4.04363965962638    2.03771002923170
H         0.96100120752321   -4.86939458506749    1.69504621394512
C        -1.76707590540886   -3.18403541333929    2.69896236307754
H        -2.81953092037226   -3.34130053911864    2.87140391413815
C        -0.97765223167005   -4.24885373033939    2.31374557504778
H        -1.40899192639993   -5.23168277104407    2.20435246377160

