109
CSD_code = BUJFAO | q = 0 | S = 0 | Stoichiometry = C54H50Cl2P2Pd | MND = 4
Pd       -0.06131799280681   -1.42745945965552    6.36640600859995
Cl       -0.75921355760385    0.38195675772813    5.12166373807006
P         0.73516572744189    0.23513262092550    7.77930156916643
C         0.73473950324898    0.05069730898420    9.60215288593125
C         1.32005502829001    0.95105515431543   10.50019156353767
C         2.10841573727786    2.14458604210103   10.10875406166157
C         1.50860350415612    3.39663701862056   10.04433216624541
H         0.45218842240630    3.49146973143918   10.24044159381033
C         2.25096276217891    4.51859985990426    9.72442837868237
H         1.76469331854463    5.48105334563162    9.66437577198873
C         3.61026631082631    4.40969660895513    9.48790224628556
H         4.19039974507760    5.28514155249605    9.23626286074773
C         4.22638216644556    3.17484857787160    9.59625197746740
H         5.29153514284557    3.08463341132472    9.43910792424506
C         3.48274129248142    2.05148545788114    9.91227489542314
H         3.97316390496963    1.09484400695034   10.01758927259630
C         1.16673364060399    0.72880813192766   11.86493942260680
H         1.61931456583891    1.42807662407681   12.55468630817589
C         0.45586777470751   -0.35518750388607   12.34569581996416
H         0.35138375329747   -0.50002974056308   13.41092524747847
C        -0.11581526435131   -1.24786084952318   11.45679399121270
H        -0.67124045251524   -2.10030509962154   11.81730678073947
C         0.02367381199474   -1.03840672100570   10.09910315771365
H        -0.42231897121092   -1.73274134094181    9.39788730947250
C         0.14894884027332    1.96246544171416    7.62842287431855
C        -1.03189548899419    2.35100888688625    8.27402465287621
C        -1.82943927395813    1.42834411993233    9.10269496811920
C        -2.43217178951128    0.30308914303319    8.55072178836177
H        -2.30323270050936    0.10494014210525    7.48957650330579
C        -3.23609225331125   -0.50521355455975    9.33731826557719
H        -3.73460310929468   -1.36017161512343    8.90841291327123
C        -3.41910641687956   -0.21949066218179   10.67892659703362
H        -4.03857428313375   -0.86101377571116   11.28817199989934
C        -2.81741595899650    0.89604675357998   11.23483330026535
H        -2.96043624465374    1.12723377049023   12.28021676333181
C        -2.04431546624799    1.72514453860074   10.44611709149892
H        -1.58984881540372    2.60530796839069   10.87810240589487
C        -1.47115966652183    3.66673398447648    8.16950088500651
H        -2.38604145344396    3.94945239694875    8.67168418448423
C        -0.76900099976015    4.59717940643847    7.42837572877112
H        -1.13025211966345    5.61183440705389    7.34834318197183
C         0.39956518380564    4.21633761917355    6.79394447705624
H         0.96470550043605    4.93310183343674    6.21663278370013
C         0.85096644063815    2.91421137086120    6.89623354303586
H         1.77100756181349    2.65328920708799    6.40070147916999
C         2.53835658557500    0.30267932407414    7.31794238065698
H         2.97043729362844    1.24453153750099    7.67583080737651
C         3.25068017241810   -0.88100450271966    7.96991037709879
H         2.79705639760482   -1.81916199108804    7.64669561445077
H         3.18090788568670   -0.83946406227864    9.05511751680925
H         4.30271623552346   -0.89035503960020    7.68784087772971
C         2.66340051463549    0.19512502927395    5.79857522402391
H         3.71499552829586    0.17637510235940    5.51191294919443
H         2.17747950303826    1.01981850793641    5.27909163397659
H         2.18065745929011   -0.73622070271249    5.46467034698116
Cl        0.63685812487198   -3.23675009214943    7.61061700034073
P        -0.85751951903832   -3.08977449616968    4.95314506109870
C        -0.85708993454503   -2.90549182535843    3.13032719173924
C        -1.44229712720779   -3.80593524741182    2.23230268884275
C        -2.23059551269834   -4.99949709855955    2.62376545156971
C        -1.63075045746099   -6.25154516273077    2.68800238238044
H        -0.57436744229443   -6.34634528384253    2.49171028193356
C        -2.37304054350793   -7.37354347553214    3.00793681054479
H        -1.88674536961922   -8.33599391163458    3.06782778739017
C        -3.73230844240263   -7.26468789728383    3.24468351050412
H        -4.31237979802035   -8.14015330904751    3.49639101556287
C        -4.34846846015802   -6.02984731996281    3.13649465604210
H        -5.41360505268211   -5.93967529112583    3.29377162469617
C        -3.60489577891988   -4.90644765959688    2.82043760716101
H        -4.09537011179681   -3.94981977721902    2.71523707662321
C        -1.28890711102961   -3.58373459159973    0.86755945216726
H        -1.74142127396719   -4.28304446931080    0.17781443637008
C        -0.57809407176096   -2.49970449386174    0.38681032123098
H        -0.47355353205672   -2.35490595185673   -0.67841852342912
C        -0.00655560801108   -1.60692179162823    1.27570149397513
H         0.54880473677697   -0.75443526968140    0.91519755628247
C        -0.14609925169870   -1.81633950703574    2.63339061941553
H         0.29981441769620   -1.12194434024450    3.33461754145483
C        -0.27133344804970   -4.81712572712075    5.10411828875217
C         0.90951313196767   -5.20570962794506    4.45851064724263
C         1.70710557325505   -4.28307044269873    3.62986533909526
C         2.30980527918840   -3.15779008951285    4.18181725284285
H         2.18085931067659   -2.95961785117313    5.24295529656799
C         3.11373106135079   -2.34949075633839    3.39522685622082
H         3.61219688282891   -1.49450386979628    3.82412254210976
C         3.29678824956507   -2.63524480797190    2.05362960630092
H         3.91626316875438   -1.99372711268854    1.44438681044167
C         2.69515914929322   -3.75082551826539    1.49774757481168
H         2.83823418155325   -3.98205470450869    0.45238110395219
C         1.92206065828277   -4.57992146765563    2.28646462779783
H         1.46766299066892   -5.46012873377211    1.85449802890564
C         1.34872428089027   -6.52146099047142    4.56299984546153
H         2.26359606867530   -6.80421204551957    4.06081613362842
C         0.64652370421642   -7.45191990774019    5.30406718524859
H         1.00773534284986   -8.46659471964175    5.38405160068849
C        -0.52202616714069   -7.07106317075491    5.93851666002604
H        -1.08719491264814   -7.78784452629081    6.51578087807532
C        -0.97337108978759   -5.76889989932352    5.83628526054429
H        -1.89341226171479   -5.50796183527244    6.33180579434331
C        -2.66072037852440   -3.15744885611667    5.41455210183501
H        -3.09284913184371   -4.09929444662958    5.05669508797577
C        -3.37299757150195   -1.97371901670153    4.76260627584448
H        -2.91937054064320   -1.03555155457887    5.08584801087246
H        -3.30320954993682   -2.01525775676667    3.67740073000917
H        -4.42504803820698   -1.96439629616839    5.04463527471008
C        -2.78574670987724   -3.04983382223884    6.93391169251763
H        -3.83734929453593   -3.03113346684954    7.22060843221543
H        -2.29979733153271   -3.87448783773963    7.45343108359474
H        -2.30302042500836   -2.11845696024248    7.26772186641809

