53
CSD_code = BUJJEW | q = 0 | S = 0 | Stoichiometry = C20H28NiS4 | MND = 4
Ni        5.87862711785100    5.88783608944656    2.79690912467433
S         3.75612557618598    5.45959626723832    2.46564915849398
S         6.19694832717112    4.08757770009777    4.00054507454350
S         5.56827090484677    7.67063090864695    1.56516226358990
S         8.01694220250400    6.27690230932300    3.06761959470215
C         3.60064020842455    3.99722542535095    3.29807526680004
C         4.65151848490150    3.40677595471006    3.96035087254492
C         4.15315660176176    2.09718443467562    4.51937839884428
C         3.97303342987697    1.21752891168985    3.25431783796908
H         4.88491617557147    1.21524292120405    2.65775627685134
H         3.75874028048518    0.18808027187756    3.53768113664502
C         2.79345599798752    1.87400532931147    2.51315895906431
H         3.07232550456989    2.21778065502988    1.51749011285149
H         1.94648777336028    1.19801844490786    2.40902154544050
C         2.42766282639479    3.06829936901900    3.42233964899778
H         1.45409099341372    3.50940202367714    3.22672859439757
C         4.99790459802897    1.48185114592327    5.61117488719387
H         4.55297368070129    0.55390630384224    5.96216910171544
H         5.09305253928394    2.16833228710627    6.44883743890506
H         5.99451167229288    1.26951457912923    5.23054360153431
C         2.68071602336190    2.49926016053508    4.84197207117538
C         1.76527366694692    1.34244232053308    5.22753734484643
H         1.81361676361750    0.51232354356713    4.53233779775893
H         0.73601766980193    1.69342051526396    5.26671702492897
H         2.03382457425647    0.97483428406842    6.21541595665372
C         2.56514862029277    3.56567583897997    5.93082286890574
H         3.22273152077404    4.41078664812988    5.74542187010647
H         2.81759090062147    3.14207378402421    6.90006973601716
H         1.54283519298905    3.93525489754999    5.97691344680651
C         7.13759538576448    8.29385467778828    1.51554317690017
C         8.19241175805862    7.69245935221257    2.16150668607785
C         9.42261862523620    8.48283450282807    1.82080990164860
H        10.27538661891815    8.33429679411096    2.47762230128552
C         9.68314919162267    8.15282724861699    0.33420799208087
H        10.64115258492347    8.55867908289249    0.01377376360776
H         9.70592695882857    7.07497405392470    0.17601518385028
C         8.49825151225681    8.82253210087359   -0.38638315334751
H         7.88262779858326    8.10222238511893   -0.92451167848795
H         8.82465726599203    9.57860227777775   -1.09894022721952
C         7.68778399925250    9.47934837306926    0.76195056292714
C         6.67398447728675   10.50986700607787    0.32100239743375
H         7.16265352061546   11.32670935955788   -0.20462637450385
H         6.14173495916456   10.90975209907213    1.18056092192678
H         5.94730700112462   10.05050797372305   -0.34543879230369
C         8.81861560828667    9.90853264963054    1.74718106428697
C         8.29691224481684   10.39518047704312    3.09888800331409
H         7.57670636290381    9.70525698104703    3.53044075744787
H         7.81820669866812   11.36552735388876    2.98989937940832
H         9.12520189876873   10.50105614130208    3.79637799165152
C         9.77398967355714   10.96873015675967    1.21032733043063
H        10.16289877097345   10.73141164602787    0.22686291599033
H        10.61553588618134   11.07571469658837    1.89183419572845
H         9.26355136993435   11.92745928520953    1.15187868690787

