88
CSD_code = BUJJOF | q = 0 | S = 0 | Stoichiometry = C38H43Cl2CuN2O2 | MND = 5
Cu       -9.28033342820897   -0.85776867184302   -7.09652169263183
Cl      -10.32213938323808    0.69141849922637   -5.92899643767331
Cl       -7.53336916054893   -0.39712673411043   -6.15833956493387
O       -10.88288120678285   -1.37604630217084   -7.80208097441738
O       -10.46997684481665   -2.44616814149762   -5.96148149961786
N        -9.31333002258612    0.63653852175501   -9.02309000526810
N        -8.29705673236142   -1.93835062757679   -8.54069836311762
C        -9.07466237839686   -0.15006307910621   -9.99089295182397
C        -9.11421612237243    0.02320657727578  -11.44527923309639
C        -8.49298296844513   -1.11834706748308  -11.99704685653640
C        -8.04098753826985   -2.02482647247760  -11.00916732060788
C        -8.43023309307449   -1.46026098001139   -9.72294845049427
C        -9.51426623173833    1.03130468308277  -12.28700288455928
H        -9.94425423576532    1.94603268314668  -11.90884910932245
C        -9.33795124938636    0.85312856744153  -13.67305389182454
H        -9.66680995868705    1.64279113785292  -14.33261608246842
C        -8.76982187172895   -0.27518224691985  -14.21208374195444
H        -8.66012831855899   -0.37243128027266  -15.28197042776782
C        -8.30575496579686   -1.31156711087603  -13.36996495647163
C        -7.65905244428318   -2.50977227724613  -13.74494904246126
H        -7.49484328112504   -2.71930245209796  -14.79170507066431
C        -7.23091067824774   -3.39926339566018  -12.78754327850664
H        -6.73293582550915   -4.30635545813970  -13.09678930187542
C        -7.39887618116409   -3.17496002925482  -11.40936562960058
H        -7.01639400510995   -3.89173572838184  -10.69905732255041
C        -9.87417043788137    1.89047574803231   -9.08841442442960
C        -9.06999993524453    2.95597810629263   -8.64168630559923
C        -9.58785032588561    4.23769741233001   -8.66844699129854
H        -8.97751823163729    5.06859723420064   -8.35356326125585
C       -10.88821071860721    4.46501599222660   -9.08438985909421
H       -11.28428747531434    5.46956750698663   -9.09710462694284
C       -11.68930602249628    3.40292205123399   -9.45836552280666
H       -12.71535298684722    3.58969512545721   -9.73708449077467
C       -11.20859245232551    2.10190427223995   -9.47741979766221
C        -7.64848062383928    2.65661796823046   -8.23705218139437
H        -7.63448281861779    1.63741636302269   -7.83483036741332
C        -6.73579521275761    2.69660611753124   -9.46793722669249
H        -7.06892367920064    1.98931847609891  -10.22652600486069
H        -6.73537201661661    3.69338274992418   -9.90599989426049
H        -5.71769329653920    2.44170326853224   -9.18361374491413
C        -7.12750207886542    3.59226911464534   -7.15011092975658
H        -7.84296013853138    3.64971587844003   -6.33446304520936
H        -6.19378993037811    3.19958925879666   -6.75543465164882
H        -6.94146873665232    4.59249637282015   -7.53564862021150
C       -12.14986497197097    0.95270860991191   -9.75342927292234
H       -11.58436888534849    0.01649335005657   -9.76520476735265
C       -13.15526551909667    0.86039568962276   -8.60119576498271
H       -12.62329533908695    0.74303220255978   -7.66052032930041
H       -13.76587593730768    1.75839674825932   -8.54405427931857
H       -13.80868117677834    0.00210970229870   -8.74354106018227
C       -12.87730069818419    1.09276355092936  -11.09231669443825
H       -12.17288496917935    1.12547183997411  -11.92103448658425
H       -13.53617552806364    0.23985150775825  -11.24149488170812
H       -13.48262919397588    1.99529225984886  -11.11721457399370
C        -7.42556742349999   -3.00223684442614   -8.26109481359837
C        -6.04043729690356   -2.74295675782059   -8.22462043494655
C        -5.19676887156714   -3.79469681776490   -7.89694198370168
H        -4.13320855641934   -3.62062241157882   -7.85651740217362
C        -5.68337556347695   -5.05944645714053   -7.62958830572748
H        -5.00368985001182   -5.85815070464088   -7.37319115609379
C        -7.04007095686156   -5.30461974355966   -7.71270821377900
H        -7.41081665248040   -6.30254416761869   -7.53950496917406
C        -7.93101201483071   -4.28854615943213   -8.02493186904887
C        -5.43775208587703   -1.40049643188448   -8.57024678675326
H        -6.23366077505928   -0.66073003639491   -8.68678208027342
C        -4.66621825918188   -1.49752716818577   -9.89246985795207
H        -5.30974988310942   -1.82632369526314  -10.70609386745325
H        -4.26000569239638   -0.52262035820418  -10.15161582248857
H        -3.84071506190370   -2.19992065083488   -9.80464637169150
C        -4.51112603380103   -0.89234768726050   -7.46420621212832
H        -5.06770777278284   -0.79978614614373   -6.53655382742446
H        -3.66401432008415   -1.55574553653542   -7.31332910559937
H        -4.13147841684104    0.08990796426219   -7.73476247356325
C        -9.39697751606937   -4.60310300749759   -8.20879735018332
H        -9.94211155959897   -3.66332221651749   -8.33631858275476
C        -9.97230611018228   -5.33001932412093   -6.99311123718855
H        -9.85072133399212   -4.71815788940462   -6.10330726638538
H       -11.03431917239167   -5.51236499163395   -7.14379797315004
H        -9.48326895559397   -6.28745312183871   -6.83437462447201
C        -9.59770261313660   -5.43900410374386   -9.47837345463085
H        -9.26165920232191   -4.89646904382636  -10.36047415906933
H        -9.04376401721557   -6.37293970784866   -9.41453406485762
H       -10.65236121999088   -5.67362616180928   -9.60441386759471
C       -11.25757825540122   -2.16494867861500   -6.86488291820952
C       -12.66020735736314   -2.70126195594455   -6.92829186156997
H       -12.93389303841656   -2.91378047470032   -7.95841957775264
H       -12.74103070075185   -3.58907358986705   -6.30861118177749
H       -13.32725599719455   -1.93194301512517   -6.54269417929572

