57
CSD_code = BUJLUP | q = 0 | S = 0 | Stoichiometry = C28H24Cl2N2Zn | MND = 4
C         3.17253865536858   10.58444239428642    5.40536686798947
C         1.76517459134859   10.23383883501455    5.58939563188865
C         0.92530044593745    9.27184450089652    5.07765994638772
H         1.24965184909168    8.58134059399374    4.31470627451257
C        -0.38657125526137    9.18743750737358    5.57624185646163
H        -1.03952896414039    8.43296780672108    5.16270216295404
C        -0.85988713294073   10.01517129338377    6.56492606136903
H        -1.87389738046241    9.91384491042562    6.92249110156835
C        -0.01672260826062   10.99214493025720    7.13865391248595
C         1.28053917500771   11.07467478645183    6.61960359327669
C        -0.32460041989963   11.87313085445219    8.19869669317646
H        -1.31472494750441   11.85886287577240    8.62945083929417
C         0.63306604744803   12.72744501102960    8.68839386701598
H         0.38520371602881   13.38183933721840    9.51103041274001
C         1.93710842852465   12.78692149198436    8.16608750273432
H         2.65569278241823   13.46120133820642    8.60536050448114
C         2.26366752155246   11.96588387403765    7.11168396317554
C         3.48706067633178   11.67452450468318    6.36642632062534
C         3.96691172487285    9.19628135710894    3.65014955823982
C         2.98776139086610    9.35306596911329    2.66692236979005
H         2.31346823038661   10.19613614550836    2.71959194742006
C         2.93079836326335    8.47760925771624    1.59505118625930
C         3.84374223213751    7.43161754388136    1.52864688273229
H         3.79567045617394    6.74230044368045    0.69765490795683
C         4.83187721985065    7.26588089664346    2.49357149722532
C         4.89979766213610    8.16595435251780    3.54329636272161
H         5.65942560328051    8.06716926698878    4.30605021410236
C         1.91315473546992    8.66369882439100    0.51083086413706
H         1.50056887269776    7.70607244120663    0.20076163186192
H         2.38103142699953    9.12289040307279   -0.35967111298487
H         1.10281132655757    9.30890610340603    0.84051241534759
C         5.80282993583849    6.13086583236556    2.39811427228944
H         5.32501543506950    5.20450570199079    2.71751194715073
H         6.66525899847536    6.30693844359842    3.03467259644370
H         6.13958119865370    5.99763705157551    1.37235581925099
C         5.11925835272222   13.19878482726771    7.17205601322211
C         4.44399420439642   14.42049194812556    7.12571972214254
H         3.55374538334293   14.51122123352691    6.51957019135276
C         4.95238314624397   15.52274661827040    7.79235763916257
C         6.12740258167169   15.38684459243560    8.52265388726261
H         6.52211078144000   16.24404497582648    9.04939863994057
C         6.82016810807206   14.18153649721287    8.56927861043226
C         6.31869447376897   13.09412902981149    7.87447567940323
H         6.83568963241648   12.14483070608124    7.88763688114890
C         4.25841984721343   16.84896820207046    7.71864143412805
H         3.25427413134004   16.74397808168895    7.31626701672987
H         4.81719048936930   17.52391898467283    7.07127324392164
H         4.19878056075667   17.30686692206665    8.70392918984007
C         8.08651883143337   14.06575997406444    9.35881730364447
H         8.72584234555596   14.92912360354853    9.18707821086366
H         8.62868593972192   13.16439448779386    9.08796012146666
H         7.85967041323416   14.02328926864487   10.42426676595541
Cl        6.42941605932992    9.21873325866094    7.03647178772277
Cl        7.32418375913942   11.68815406901416    3.99964957219805
N         4.11059618986182   10.10645090368858    4.67925664454591
N         4.68812150473787   12.10701663146854    6.44432932320678
Zn        6.01107727172650   10.73596830311753    5.45851125007065

