104
CSD_code = BUJMEZ | q = 0 | S = 0 | Stoichiometry = C57H43IP2Pd | MND = 4
C         1.03641164942186    3.41069114790466    6.90055631245398
C         2.29405456307955    3.61780939676736    6.35245772549897
H         2.66336718431964    4.62226232722113    6.20252082170833
C         3.09961858056511    2.53190585633296    6.05947092714713
H         4.09578994172536    2.69471971309835    5.67550747573550
C         2.67022589876876    1.23238739514787    6.31082414541219
C         1.38560128508725    1.03070740245246    6.81933406256310
H         1.02847489417714    0.02277022638322    6.97493366411719
C         0.58863671041940    2.10815409876826    7.13271441427541
H        -0.39615003267084    1.96243193112966    7.57884172192028
C         3.54546548391610    0.08125581703019    6.04097069340394
C         4.12433944868892   -0.05487794174646    4.80685033523706
H         3.95917748286388    0.70366225518233    4.05473371511085
C         4.89455806994857   -1.18605363418263    4.47937626525825
H         5.32648102362090   -1.25863426099424    3.49184305697865
C         5.06975171407453   -2.18459423098834    5.38737716454948
H         5.63659214150560   -3.06969655905265    5.13647645221186
C         4.51441939807776   -2.08478904377294    6.68790524809057
C         4.70963023372803   -3.07860620359991    7.64243423933592
H         5.30665192125429   -3.94311742164891    7.38558316924335
C         4.17367983191161   -2.98479075160492    8.92356963584708
C         4.37931163329143   -4.00249382617467    9.88865199656521
H         4.94442481512044   -4.87757361968573    9.60135671222443
C         3.87787889577088   -3.87660988976997   11.14756269086263
H         4.04133973434788   -4.64917639385118   11.88475967246640
C         3.11932224161912   -2.74533905316623   11.49975583575685
H         2.69642799466149   -2.68568903846000   12.49271855786237
C         2.87159114753619   -1.74199218601782   10.59994263227764
C         3.42436073591148   -1.81972735115357    9.28172535133392
C         3.28315966037180   -0.79858949347565    8.34357102205416
H         2.81626323920508    0.12659283962457    8.64332991009913
C         3.75924146902654   -0.92199077009960    7.03937600288891
C         2.00689210898113   -0.61845186207467   10.99296259609850
C         2.24913326739886    0.08456077952206   12.16953021260791
H         3.09423836365460   -0.18895492815738   12.78386867895369
C         1.46103458748960    1.16194377178309   12.53292789206408
H         1.69313297948148    1.72662312294321   13.42459907773258
C         0.41219221277213    1.55124040639090   11.71275843336199
C         0.15305337327248    0.84168272980281   10.53733239375738
H        -0.66082625330083    1.17574336156042    9.88886537317545
C         0.92301212202103   -0.24693333040951   10.19503236218532
H         0.70075743948697   -0.81369610124845    9.30245510356744
C         0.75627676730198    6.29334148442986    7.47469539940386
C         0.95484780666449    7.03628835319192    8.63363025179481
H         0.66581036040516    6.60640145434997    9.59707422239442
C         1.51752530573295    8.29659677989402    8.56018533449821
H         1.68035579621239    8.87300094126728    9.45887568734745
C         1.87708419839209    8.81519162580886    7.32689898785152
H         2.32369144292494    9.79667698805307    7.26602686400930
C         1.66240634624492    8.08413382921142    6.16817197620549
H         1.93789124778504    8.49953648133916    5.20962274917871
C         1.09540841114636    6.82524594196583    6.23526591177059
H         0.90925895348413    6.25287050245015    5.33591153846719
C        -1.45358048318059    4.81820116847471    6.55748011337148
C        -2.34790809260973    5.85035842719496    6.83265300579681
H        -2.12572755588843    6.54485464039122    7.63339284886058
C        -3.50832463275097    5.98056743499630    6.09739840559161
H        -4.20171414476921    6.77778940547293    6.32120313718177
C        -3.78444224675792    5.08260321329469    5.07789857819418
H        -4.69519080142760    5.17910670364969    4.50538553835250
C        -2.89295080702440    4.06280701070838    4.79263134775966
H        -3.10470702953105    3.36705355469741    3.99340361646998
C        -1.73003275083910    3.92478359542154    5.53051034988722
H        -1.03689465648807    3.12558812790631    5.30477471323480
C         0.08581024620928    4.05731640682612   13.23547599368815
C         0.07001490674871    3.56655310052856   14.53695034342845
H        -0.30624490485979    2.57054887157226   14.73091792585907
C         0.52938948719173    4.36286531882570   15.56905097102997
H         0.52909214390030    3.98480168845545   16.58116439877463
C         0.98879515015656    5.64542506770818   15.30914833980457
H         1.34921252119317    6.25995779544143   16.12089827805211
C         0.98229272658399    6.14417744053828   14.01684344354572
H         1.33384181652845    7.14621413431369   13.82045353645317
C         0.52797672452854    5.35064069619288   12.98021284337250
H         0.51603782065335    5.72328961776683   11.95411885015313
C        -2.18020971727902    2.61086775624430   12.39753933919038
C        -2.65764904108845    1.30804161315031   12.32823218682445
H        -2.00312127135633    0.50622226408100   12.01386571601085
C        -3.97112158195018    1.03614388319831   12.66876262755673
H        -4.33837667337803    0.02130949795747   12.61524852858623
C        -4.81424517816424    2.05778159654556   13.07053760084055
H        -5.84137185813781    1.84136721508071   13.32511916846225
C        -4.33988480892874    3.35791116621769   13.14775908633336
H        -4.99460256432477    4.15674396245496   13.46390928061770
C        -3.02964141788223    3.63370678155333   12.81363952967698
H        -2.65273158995686    4.64732225581399   12.86826041324171
C        -2.17033934494757    4.30166698447635    9.69486738083037
C        -3.07157665953478    3.36811089906209    9.20742179830751
H        -2.72698452197856    2.40759998068777    8.83003983077894
C        -4.42734027017316    3.64582799179192    9.19047623321871
H        -5.11877242032572    2.90686946482914    8.80788163321969
C        -4.91215015773364    4.85935757752218    9.65768519599949
C        -4.00660929896138    5.79289270696171   10.14234721048458
H        -4.36596740659864    6.74546459076060   10.50978409047394
C        -2.64962019186456    5.51741851310507   10.16239124084492
H        -1.96020663572533    6.26994532722173   10.55170970480175
C        -6.38509201186855    5.14219132972536    9.66168840594149
H        -6.57600139700679    6.21283996599779    9.63341774765026
H        -6.84034989108441    4.74053843613098   10.56832873439739
H        -6.87076000129042    4.67461231515582    8.80753519665891
I         2.41981856719481    3.89940896631002   10.07706145017363
P        -0.01636090072194    4.66970911071050    7.66312634370657
P        -0.52208648948898    3.09816055149808   11.82938166651562
Pd       -0.21176653190522    4.01781280570581    9.80299340284895

