111
CSD_code = BUJNUQ | q = 0 | S = 0 | Stoichiometry = C56H42Cl4N6O2Ti | MND = 6
Ti        3.66275028566213   -2.40467966978718    5.22040000411196
Cl        1.59337921395857   -2.04061443596162    6.21235284201118
Cl        2.86114195502587   -1.77008453807107    3.13619641133725
O         4.05622001011586   -0.66961957850914    5.51750244969063
C         3.87053532590346    0.11931210591090    6.50512250293219
N         4.73901979742280    0.27257644302344    7.53181504841413
N         4.24148344007579    1.09122591915240    8.48818632451119
C         3.07375460268526    1.51180205584808    8.08713009790751
C         2.76155015608318    0.98233105655971    6.78434018928091
C         1.71836361870814    1.31670807733170    5.90807927800259
N         1.54717232117671    0.69478688825632    4.75905690547302
H         2.08225195461039   -0.16298903743432    4.56722487212912
C         6.01346194482300   -0.29953056346682    7.68977790612695
C         6.79244635287366   -0.60789134289357    6.58055216850392
H         6.42889050621920   -0.42099635414502    5.57960162870136
C         8.04814148220965   -1.15696462889648    6.76847184706245
H         8.64576389735286   -1.41172631939629    5.90655079336431
C         8.53364403771005   -1.37329702831298    8.04755529496739
H         9.52082731461407   -1.79021966435967    8.18347191494062
C         7.75729339446242   -1.04733297344335    9.14800029889049
H         8.13328267933992   -1.21446553556505   10.14639709516256
C         6.49550601274402   -0.51154071281537    8.97577216211328
H         5.87148820534336   -0.25344864966953    9.81603132238009
C         2.23815053821860    2.33571172784205    8.95874310097952
C         2.75429767714332    3.47882240485633    9.55864839630673
H         3.78013411016759    3.75510387087118    9.36875203881071
C         1.95356623485515    4.25204762155310   10.37887529550355
H         2.35508463181178    5.14520108623066   10.83467105503080
C         0.64082603151630    3.88241314215404   10.61818729191849
H         0.01536564960357    4.48999222307024   11.25539154946353
C         0.13479077161832    2.72375602175565   10.05184807464112
H        -0.88162060923971    2.42125113570523   10.25552111121505
C         0.92800285679541    1.94918358128938    9.22795939649010
H         0.54481506687085    1.03521174580147    8.79960729310137
C         0.79109493555148    2.40306380577896    6.28017203949371
C         1.26568826866201    3.67982880135019    6.56391803576353
H         2.32141672068418    3.88943967115234    6.47625725360916
C         0.38511694810454    4.67654429677757    6.93966720524771
H         0.75789941270053    5.66573980730804    7.15741518627766
C        -0.96853323157728    4.40403298770882    7.04427813992886
H        -1.65265481494984    5.18185654131545    7.34788962683156
C        -1.44435215275751    3.13519763833373    6.75782575025073
H        -2.49937901535889    2.92182959931954    6.83832165520537
C        -0.57198555060163    2.13680046356563    6.36813994995781
H        -0.93334352533216    1.14189184903499    6.15569533290672
C         0.60872934996925    0.99680787561636    3.75821399430141
C        -0.01874013947170   -0.06623962355342    3.11554870188863
H         0.21532316656249   -1.07706203593598    3.41104484600489
C        -0.92809552924892    0.18526016106550    2.10629649093509
H        -1.40811710646413   -0.64217517143527    1.60772111834791
C        -1.21410371771976    1.48765772125535    1.72994898439585
H        -1.92432649314774    1.68099023568150    0.94023517603495
C        -0.57422131828338    2.54305126029398    2.35814343421114
H        -0.77819366374870    3.55907835751223    2.05534196810780
C         0.34058279830681    2.30504708904574    3.36733537458260
H         0.85876031117522    3.12977790234496    3.83133756180524
Cl        5.73209856173357   -2.76855322986614    4.22818626627122
Cl        4.46412976714451   -3.03954586794018    7.30451053133972
O         3.26927986500028   -4.13975808260628    4.92333551847608
C         3.45505577309002   -4.92880558062082    3.93580939806632
N         2.58671179295244   -5.08211868361580    2.90899061088063
N         3.08431665765947   -5.90093284003556    1.95278942555756
C         4.25194661562478   -6.32157016908602    2.35407026403523
C         4.56398520817258   -5.79198180300459    3.65685439590688
C         5.60696093042164   -6.12640499387790    4.53334883120332
N         5.77812114173327   -5.50424546896083    5.68224029828770
H         5.24322080438458   -4.64629581405610    5.87377277596683
C         1.31230784134155   -4.50998740854901    2.75079497784186
C         0.53320752405816   -4.20146077922447    3.85989268202610
H         0.89664866455858   -4.38822286081541    4.86090873436047
C        -0.72247788033757   -3.65243970506699    3.67176472264537
H        -1.32017947463450   -3.39754701963751    4.53359164298778
C        -1.20786379675085   -3.43632475981860    2.39260041941729
H        -2.19504825859931   -3.01945890646584    2.25652320926998
C        -0.43139687217034   -3.76243531802014    1.29228212284527
H        -0.80729939924849   -3.59546730416871    0.29382471107718
C         0.83038694111327   -4.29817672745802    1.46471672257011
H         1.45448123740851   -4.55640378607484    0.62455337691233
C         5.08763562844728   -7.14561266311283    1.48265774257855
C         4.57147049658630   -8.28862954652839    0.88258358228511
H         3.54554973654750   -8.56477496134984    1.07221736274835
C         5.37228889277913   -9.06194044466702    0.06251894475739
H         4.97075108424316   -9.95501626634452   -0.39341332886678
C         6.68514124335286   -8.69249308381628   -0.17646124531198
H         7.31066278184324   -9.30013288936672   -0.81354802566827
C         7.19121428838238   -7.53394157816147    0.39005950858283
H         8.20772281478553   -7.23158314820600    0.18665623045895
C         6.39791481391095   -6.75928335131465    1.21378341551797
H         6.78113349514820   -5.84538440974682    1.64226128159113
C         6.53403164813723   -7.21305307012322    4.16162143862432
C         6.05915228147192   -8.48971348817290    3.87788848437941
H         5.00334859951403   -8.69902889087069    3.96534883752373
C         6.93953136110695   -9.48670341692059    3.50241961321847
H         6.56652589553535  -10.47581841134972    3.28468883103295
C         8.29327697502815   -9.21457041211224    3.39806634097814
H         8.97724873526351   -9.99260474843285    3.09466002857985
C         8.76938596104587   -7.94584528858720    3.68452814417508
H         9.82448985364873   -7.73277671345549    3.60424941888964
C         7.89720911265812   -6.94717609135669    4.07393941380928
H         8.25879729035927   -5.95234777772444    4.28636826800830
C         6.71629804193012   -5.80624633962413    6.68332973669861
C         7.34391081036704   -4.74319036281076    7.32584278112491
H         7.11017075627523   -3.73238256294089    7.03003599269227
C         8.25299522509474   -4.99466475585569    8.33534400753050
H         8.73313357730023   -4.16722550984058    8.83379934850144
C         8.53858925165139   -6.29704126701395    8.71208122007106
H         9.24859148260858   -6.49035386020772    9.50199707297657
C         7.89855403478203   -7.35243236031240    8.08403613011112
H         8.10218994745502   -8.36843361839229    8.38714815610886
C         6.98402373454129   -7.11445309047814    7.07459330077368
H         6.46571938202199   -7.93916381985018    6.61069454000903

