57
CSD_code = BUJNAX | q = 0 | S = 0 | Stoichiometry = C28H24Cl2N2Zn | MND = 4
Zn        0.65619693516590    9.82816772944449   15.53178470610210
Cl        1.55078869494100   11.74536285808363   14.81710225647437
Cl        1.45663137645317    8.32876951536957   16.90075174680302
N        -0.28877829970033    9.14376991951065   13.72909992335004
N        -1.36716006272144   10.45142895373140   15.86130348926829
C        -1.36445687394575    9.81661034593022   13.56271924535722
C        -3.16275954201421   10.69562596377465   17.47416036016501
H        -3.83205158119880   10.15200821068408   16.82242517920561
C        -1.95233888763556   10.53084842214761   14.72645258380817
C        -3.11152243734861   11.27668524531339   14.24105741265037
C        -1.36860552551554   11.98219441357335   19.18182674766763
C        -0.95021771290353   11.54528718881842   17.93482912032751
H         0.06980894596990   11.70315797456389   17.61160598408054
C        -1.84535367810490   10.92492542549285   17.06707463580602
C        -3.58339127742325   11.10028775854426   18.72898211818002
C         0.30777225617470    8.30779171597143   12.80651883857029
C        -2.68454857272997   11.75532244826647   19.56520954297615
H        -3.01648563666980   12.07877299591236   20.54147640989488
C        -3.99170771046263   12.17744998518098   14.79462242018955
H        -3.95223750146495   12.44180331234894   15.83990406794851
C        -0.43570362778104    7.38467001351279   12.06623518341390
H        -1.50644215297679    7.33381235177976   12.20438470593479
C         1.58782648072310    6.54851035571015   11.10307801232546
H         2.08607085929882    5.85892872771286   10.43662315044950
C         0.20282933639102    6.49564309686175   11.21874684237803
C        -3.19254921181747   11.01878960974135   12.85186791240700
C         1.69757594513901    8.31585105403621   12.70802878668098
H         2.26020217981259    9.02490355119763   13.30032652524038
C        -4.13567157391233   11.61792956727009   12.00883162666051
C        -4.95666049710883   12.77435530007517   13.96437891988004
H        -5.64766447366223   13.47440860946401   14.41049090145204
C        -5.04589079709217   12.50840621938621   12.61972737709293
H        -5.80112127013789   12.99092761853434   12.01700374780327
C        -2.17940997465696   10.14279845885070   12.39398945992934
C        -2.10237358430359    9.87638429083330   11.04642163347518
H        -1.32899958711600    9.24696681146076   10.63433398439690
C        -4.04823186046474   11.29007769423060   10.63794793155325
H        -4.75787041008283   11.71635071547418    9.94430178769113
C        -3.05473765573023   10.45454454369976   10.18886055474864
H        -2.98955388706130   10.23218378994621    9.13392664097767
C         2.34538399795395    7.44902190663254   11.84314461291801
C         3.83537011935991    7.48889783410867   11.70810939363029
H         4.22891675698092    6.50693298538510   11.45558298593772
H         4.29463100732499    7.83068352220452   12.63206901457275
H         4.11747622632378    8.18181028724010   10.91434354195235
C        -4.98255391496900   10.83017148039564   19.19329913299407
H        -4.97793542675748   10.04397236142269   19.94778317035546
H        -5.61442928417531   10.50925876700366   18.36892320076712
H        -5.41527290298808   11.72109901951623   19.64459939987625
C        -0.57998838434426    5.47677981758123   10.44730553067850
H        -0.23098378214342    5.42330359558319    9.41791009129029
H        -1.64098027210498    5.71389565709572   10.44933426207835
H        -0.44894452520121    4.49190602083941   10.89497805279605
C        -0.39878821250557   12.65009870073247   20.10540751997067
H         0.21238341352640   11.89601179628081   20.60073890388949
H        -0.91602709903841   13.22658404670673   20.86829144169218
H         0.26873513643724   13.30605943882684   19.55216727130399

