147
CSD_code = BUJPEC | q = 0 | S = 0 | Stoichiometry = C64H62N8NiO8S4 | MND = 4
Ni        3.16581431352691   10.95785230886772   15.01566472688424
S         4.30805486376886   11.97965219961604   16.93261697419534
S         6.01007407132113    6.56193323284038   18.32949681697020
S         0.87233653548075   10.36895336170292   14.37348357504103
S         1.01423085140812   15.05754467522030   10.87963678358425
C         0.11631383138479   12.45227293689338   21.28707063950047
H         0.51972313152565   12.06632354372080   22.22349229894122
H        -0.76763551299170   11.87284121252625   21.03477921247946
H        -0.17070221450897   13.48862490892982   21.45156627669805
C         1.14974652330624   12.34685187768361   20.20640159329841
C         1.14177699912273   11.27718939354386   19.31848307079617
H         0.36929145320106   10.52586285772788   19.39433868650598
C         2.10977567362458   11.16732450053095   18.33508860759263
H         2.11685451692327   10.33873120528914   17.63946989672501
C         3.09615673627954   12.13197915953810   18.24220634607126
C         3.12097979848207   13.20456864942196   19.11326184175882
H         3.90653357027360   13.93763716018049   19.01606143981041
C         2.14846940245754   13.30928230278890   20.09252671663107
H         2.16335259417800   14.14448792472506   20.77843598827424
C         5.41051078029970    9.65120307323758   16.50894293537470
H         6.28236191998231   10.27249323478834   16.76044292033785
H         5.31652168835445    8.87171655586417   17.27994088455428
C         5.56522497735607    9.05145205441618   15.15356242221604
C         5.12687586966126    8.59989826508334   13.09676738018584
C         4.40333080616468    8.64919215866392   11.83516200055853
C         3.01782873547876    8.79692335668942   11.85937572540082
H         2.51516963760332    8.86342945467253   12.81149772647854
C         2.30047756214957    8.85144270560161   10.67924880378033
H         1.22687605305408    8.96244287396512   10.71949497448814
C         2.95414722593693    8.75145901175761    9.46130411126067
H         2.39306718316470    8.78733336578211    8.53820439539520
C         4.33145946864629    8.59741500833240    9.43112536170708
H         4.84430886649971    8.50153131399279    8.48366759881625
C         5.05642898870561    8.55557775298073   10.60786835621631
H         6.13111608103147    8.45455989533029   10.57785417674134
C         6.29178679085639    7.92945070895010   13.41018047374902
C         7.08642563482665    7.00580341253875   12.60695468055921
C         8.46015155240135    7.17101632973453   12.44535741166991
H         8.95022960013182    8.01940366759351   12.89901334791535
C         9.18517988524748    6.28215451684589   11.67241087343035
H        10.24922751990531    6.42334386556652   11.54931544648163
C         8.55187918046581    5.21987951066989   11.04975885709746
H         9.12062150333936    4.52767682808593   10.44688215863814
C         7.18367565461515    5.05469684559552   11.19571470130842
H         6.68388699431744    4.23170869022356   10.70651311477042
C         6.45485595093023    5.93852287772194   11.96796398756106
H         5.38837306168785    5.81525362063466   12.08240968706953
C         7.55071995459261    7.60476577982779   15.55890615062129
H         7.68505014002442    8.19589070122942   16.46582411223978
H         8.49985206842638    7.53311205216637   15.02464164602235
C         7.07948653579207    6.18952095971570   15.94202773869053
H         6.93418379287855    5.59306022810696   15.03528082035463
H         7.83889846820604    5.71061826808485   16.56307105107281
C         6.46818249231081    4.96623409477009   18.97927714355301
C         5.51681060843784    3.96528537438563   19.00381768843286
H         4.52037968267040    4.18765114320590   18.65873503306538
C         5.86523637748480    2.71409795497704   19.47829152520471
H         5.12892980961541    1.92445127677738   19.50443290883472
C         7.15919233833217    2.45859351653667   19.92547258029187
C         8.09877401286486    3.48391772269799   19.89256648740983
H         9.10393296618409    3.29712306128271   20.24090616859565
C         7.75634589159178    4.73914386723095   19.41998722877393
H         8.46567591573788    5.55139085061075   19.39496018496963
C         7.52451855843538    1.10852903025855   20.45935201768516
H         8.58418428644399    0.90873773829693   20.32173544479693
H         6.94810870825857    0.32779718181728   19.96931064499465
H         7.30937854054244    1.06463694827899   21.52726790734608
C        -2.70928342084262   12.83966810880032   18.59451539569669
H        -3.52217837928508   13.38158056000955   18.11059193317903
H        -2.15189128994019   13.54188377031127   19.20859156672382
H        -3.15216806749666   12.07907265687058   19.23407893407867
C        -1.82344456930142   12.21807423053500   17.55726110102417
C        -2.18831332006891   11.02151020192414   16.94751005166898
H        -3.10801329711287   10.53452067072623   17.23938822304289
C        -1.38783761939375   10.45412394032910   15.97135134213591
H        -1.65985871342603    9.53168080552524   15.48249491592310
C        -0.21540519746793   11.08552786939113   15.60195540454638
C         0.16726720538154   12.27314723474593   16.19783472888546
H         1.08933509112213   12.74538455103369   15.88556134825573
C        -0.63955000103079   12.83618354443231   17.17158116954520
H        -0.34403063831152   13.76369743286121   17.63988409686258
C         1.84139136358254   11.91222955113723   12.50433704340137
H         1.38275771195589   12.89873671787033   12.33906180875481
H         1.27487557514499   11.17369264429550   11.91870576441569
C         3.27673435352169   11.91203922140688   12.10404030906987
C         5.41153759484911   11.72624506103690   12.28878071062787
C         6.68644483635772   11.46968472073969   12.94197687622912
C         7.76119130458584   10.90357452324477   12.25926212988133
H         7.65415704565472   10.63379734058102   11.21917118288215
C         8.95957073800018   10.68252681012643   12.91268874402680
H         9.79547662595384   10.26352971784828   12.36904490689638
C         9.09608079455458   11.00379356912286   14.25426287370636
H        10.03408743182651   10.82549601208731   14.76080793416969
C         8.02791604629118   11.56053273495587   14.93966543874926
H         8.12134719400005   11.82372583836350   15.98297700850456
C         6.83153425792859   11.79634006765299   14.28890899859951
H         5.99884898880332   12.23823305890736   14.81327336037832
C         5.15424963843791   12.04857736403361   10.97161622761853
C         6.07881362353870   12.32102086466753    9.87590895917507
C         5.96700469076420   11.67678768717636    8.64585055840279
H         5.19824070642640   10.93207338563908    8.50404428684251
C         6.86109237206104   11.95369854260134    7.62749341449607
H         6.76745491538598   11.44452107476873    6.67920633100150
C         7.87847372402923   12.87258590762114    7.82176870282404
H         8.57468934968364   13.08706366774263    7.02467812408394
C         8.00526115036725   13.50814761402938    9.04675605171862
H         8.80211559980479   14.21957963164408    9.20590362416582
C         7.11369392057333   13.23699126801485   10.06669274073784
H         7.21016812607817   13.72789089197523   11.02344644919191
C         3.05188506503426   12.67102919318092    9.74370674309152
H         1.99617633022352   12.42200287244641    9.85994238885669
H         3.43122991234125   12.23362450397847    8.81841637466361
C         3.20628652844458   14.20181491908105    9.67732211273431
H         4.26467179086677   14.46003053240464    9.56689248462417
H         2.65679290340873   14.58307756239908    8.81450707586156
C         0.82989851985165   16.52716987016032    9.88705532005118
C         0.29094214508528   16.44425203520717    8.61950454374431
H        -0.04372338144016   15.48456243197911    8.25815070913014
C         0.17777737285451   17.59312844595824    7.85460616877665
H        -0.24669220968489   17.53712338100706    6.86299959457711
C         0.60042628769154   18.82010552313296    8.35350994243074
C         1.13867529163066   18.87785735325398    9.63752384191874
H         1.46466036548583   19.82865307249300   10.03282759491310
C         1.25580764463601   17.73480987055710   10.40580405882252
H         1.66072998776991   17.75720166638372   11.40431729886424
C         0.49604601707142   20.06327046725553    7.52582921916314
H         1.47733221717026   20.33119005040352    7.13411746851642
H         0.13992146979115   20.89675793791139    8.12704017375950
H        -0.17851305662534   19.91884988582810    6.68627389036020
N         4.21892291795401   10.45152306760816   16.50401354621014
N         4.69884927015267    9.28733155540917   14.19777752319109
N         6.56595733023158    8.24040760716949   14.72738820675192
N         5.85431299510056    6.17144881770951   16.70242979061635
H         5.08942445848398    6.67122998250096   16.27075481560974
N         1.77293925122848   11.59154671306322   13.90182633420928
N         4.22800361504426   11.64876792197652   12.96762269538939
N         3.78101619739794   12.15061051069239   10.86741297398109
N         2.68570330669373   14.88946292489225   10.83304961556682
H         3.05193862499891   14.55783671125527   11.71448990884090
O         3.76555673592687   12.76553885132079   15.80861540323848
O         5.59341151156696   12.41354888272067   17.42485737882614
O         7.10551048101222    7.47307394242197   18.53202193665352
O         4.71088507795729    6.92884334317938   18.79961826109924
O         1.75771702226298    9.45669101786035   15.12112362313790
O         0.07663112360432    9.74795286262403   13.34198122988948
O         0.65761961283115   15.33305522035898   12.23627508996702
O         0.37384434255665   13.96189530890775   10.20088340178748

