59
CSD_code = BUJQON | q = 1 | S = 0 | Stoichiometry = C26H25ClN4RhS2(1+) | MND = 8
C         0.89909980754465    9.94197911269351    1.54417661112756
H         0.70550699139530   10.84211864312293    2.11245964946077
C         0.39061393504105    9.78218641477539    0.26749574125045
H        -0.19473696405226   10.56886297016884   -0.17932942610424
C         0.64241532786510    8.59949158631817   -0.41829967524323
H         0.26407313414311    8.45138486920705   -1.41721740932324
C         1.36555330680529    7.60560512247592    0.21213693594632
H         1.55963800322779    6.65767313836122   -0.26410271328634
C         1.83421651557366    7.83347120252948    1.50531366143282
C         2.49006671952581    6.84548479474076    2.31849009662658
C         3.39601355146798    4.93928939790291    3.46911316502515
H         3.78180127944780    3.98918982978608    3.77934123194624
C         3.19207697064063    6.03756931158095    4.26536525911878
C         3.36474126125895    6.02143888840818    5.70498868724515
C         2.58703974236423    6.71036832520888    6.60264091808409
H         1.75925049658304    7.36289291384955    6.39778665463777
C         4.28341365104557    5.24064082843050    7.54146926501534
C         5.16300700752564    4.47536313983818    8.40214578790729
C         5.03333406919758    4.50698597853313    9.79169201684583
H         4.27407795334424    5.11591467349529   10.25954735025206
C         5.89548097604188    3.73473034375159   10.55081720849557
H         5.82104145912380    3.73265371869813   11.62791730179329
C         6.84962323704242    2.96525158219853    9.90396077969737
H         7.53727303265859    2.34750718390563   10.45871078735296
C         6.89814154109509    3.00927136285555    8.51483170022652
H         7.62534970780549    2.42997253431096    7.96201976714987
C         3.44267020820471   11.09218366988143    3.72407546229320
C         2.49119453836033   11.15960376821056    4.79866839203076
C         2.95233075802605   10.27882885109394    5.85411931620352
C         4.12562420914394    9.62561842085089    5.39324119701215
C         4.40568457684816   10.09320263923475    4.05339812648187
C         3.50534728216725   11.98038909250231    2.52701573773951
H         4.28752447171239   12.72306076528045    2.69243027379986
H         2.57094334885886   12.51020946912074    2.36446354432093
H         3.75989766254322   11.42791796447942    1.62421327128369
C         1.39474441364639   12.15841797132648    4.97556936093735
H         1.15466990591272   12.66644667426427    4.04531439115044
H         1.70847764493629   12.90803267655932    5.70309171767691
H         0.49441260079481   11.67932177526326    5.35628312605946
C         2.35832766608849   10.24301465141374    7.22139963534533
H         2.78629047517081    9.44902073839989    7.82637219160664
H         1.27983113971442   10.10309684136923    7.17183623915532
H         2.54878704961380   11.19712190134426    7.71456661338015
C         5.08360852054967    8.80759012543222    6.19193393467988
H         5.98332899123351    9.40297534535073    6.35642138058340
H         5.38137980651435    7.89828272075670    5.67298093242231
H         4.67219626253374    8.53945143683044    7.16011687266237
C         5.64995587245627    9.78717141809712    3.28710697620207
H         5.50288161187424    9.92303559270944    2.21812201680631
H         5.98539319329552    8.76908027913275    3.47060505550893
H         6.44382687998174   10.46452517377335    3.60660646874389
N         1.62546232227833    9.00287766646568    2.14210228650056
N         2.71779706865975    7.11611968432230    3.59039344550730
N         4.29464794858193    5.20718014027309    6.25641436716778
N         6.08477332030160    3.73930500815886    7.78235073863423
S         2.92796915820396    5.24459390804916    1.85773571988950
S         3.04866904269463    6.32366228565702    8.20140758469740
Cl        0.27122296310154    8.61802539852973    4.71113206037138
Rh        2.41311637235588    9.15833807873521    4.03034021045399

