47
CSD_code = BUJQEC | q = 1 | S = 0 | Stoichiometry = C16H23N5O2Rh(1+) | MND = 5
C        -3.81926740844014    4.37714837292068    5.94873576431988
C        -4.33248771500131    3.23516534353104    5.36882788221385
H        -4.75211432866480    2.39138868991347    5.87522178392357
C        -4.20049187423300    3.40565116018450    3.98426485867175
C        -3.71499091989265    4.75789613892785    7.37763077134155
H        -2.67904918275047    4.92879090989903    7.67096245688224
H        -4.11661825785961    3.95868032913214    7.99314352224208
H        -4.28140090592758    5.66641577709849    7.57923476961915
C        -4.58666972757680    2.48885429923069    2.88373767583280
H        -4.49295446999726    3.00824160344664    1.92499117066457
H        -5.61311828626814    2.15315705341460    3.01318433708956
H        -3.94481650611188    1.60909409533005    2.87761116996122
C        -2.80950815150681    6.47939478049938    4.97201342202760
H        -2.42243900993836    6.65832171358734    5.98745364813479
H        -3.56877227004591    7.23931833980396    4.74349677499529
C        -1.33314889351920    7.93526746870371    3.70723205163633
H        -0.74584120942800    8.30624224582810    4.56000104256416
H        -2.22685385021348    8.55423234171678    3.61034159369552
C        -0.52436994330491    8.04720430821449    2.42435781113912
H         0.41526704367924    7.50422325019265    2.48363249171925
H        -0.30001468682659    9.09145488687830    2.22752240535200
H        -1.10694572177786    7.65464441069148    1.58999656477898
C        -0.66094397027387    5.66113211120484    4.23890781788522
H        -0.91543345819132    5.00611925783605    5.08632432322848
H         0.24780184860667    6.21931916482914    4.50081759438509
C         0.81346185939471    4.16153975018513    2.89095580792416
C         0.61744269211230    3.35630041842362    1.78819530772140
H         1.33090356425237    2.70020099479417    1.33555899697018
C        -0.70273655839849    3.57404537357466    1.37938851475261
C         2.01384316335202    4.33314483703474    3.74321284904024
H         2.36639888651741    5.36433250853567    3.72320339279422
H         2.81078183560092    3.69378990769170    3.37584853408306
H         1.80312445330332    4.06357048708622    4.77774791246489
C        -1.42713110355319    2.95177799495480    0.24278057889915
H        -2.48154088638851    3.23868314708930    0.26348987314941
H        -1.34824346597165    1.86773503257508    0.29553533488435
H        -0.99136591968998    3.26963355098923   -0.70328266732978
C        -2.58710268676060    6.03485649677985    0.29092426766635
C        -4.72581211790509    6.21645820539188    1.77226080820242
N        -3.64008839717936    4.58448063085953    3.74312304254952
N        -3.40369376910001    5.16895288014398    4.93207647875053
N        -1.77104925552573    6.55605477503323    3.94928977919241
N        -1.27600820517258    4.45844883100740    2.19217257281944
N        -0.34921885203635    4.82042128624427    3.10069748902270
O        -2.32857281998202    6.36100239218408   -0.76842302612149
O        -5.75506670524161    6.68458521216554    1.64424418105241
Rh       -3.05794385616454    5.44472723424175    1.98235626720755

