104
CSD_code = BUJQAA | q = 0 | S = 0 | Stoichiometry = C36H61FeN5Si | MND = 4
Fe        2.56136673549432    3.67393870386599    6.16489622880496
Si        2.20428523957996    0.58018676840413    2.36176708532819
N         1.43663906886473    4.40555828705413    7.41828837655915
H         1.30710596271557    5.40670101051472    7.53536649501376
N         2.23522149884277    6.12771894119519    4.15751389814766
N         3.40977650995640    6.73378315355727    5.85653856149449
N         5.52178377218933    3.63520829872084    5.33009814701904
N         5.11261637639302    3.01036822577389    7.36315817533695
C         2.73501019930953    5.67894780743818    5.33012470140208
C         2.67721623631580    2.65290607287911    4.56233786174795
C         4.50198360380798    3.39435691039944    6.20075724106309
C         2.58749685394681    7.44216931851799    3.94286085088453
C         3.33844121833918    7.82649277153757    5.01307012104292
C         2.21380140032969    8.25518180503810    2.75242739053561
H         1.17028939679360    8.10959393734237    2.48755131830903
H         2.82739820081580    7.99171609065017    1.89093875741910
H         2.36138090729962    9.31050925976703    2.96718653831185
C         3.95650989867886    9.16199043646776    5.25073691048550
H         4.09347457421149    9.67240715215080    4.30041284071550
H         4.92988727444870    9.07591026254512    5.72467587775968
H         3.31995170518762    9.78513131625019    5.88078131480010
C         1.38873428374182    5.27813090360479    3.34131794783073
H         1.53379908927697    4.27554888885973    3.77193257512820
C        -0.08350306326063    5.65098190825711    3.50586646140407
H        -0.35302173427753    5.60906290540425    4.55868091466600
H        -0.69742802798531    4.93745014176667    2.96399976256354
H        -0.30094584978974    6.64806793558661    3.12852059419266
C         1.82301425084181    5.22787633235973    1.87980645969826
H         1.46179007305249    6.07916979829667    1.30933741176079
H         1.42837212840104    4.32169127418547    1.43074605190664
H         2.90711828095438    5.18617765779927    1.81538621719691
C         4.01004168938789    6.66247675268314    7.17433791100254
H         3.69888110030877    5.67539616142689    7.54305579554914
C         3.46078723094400    7.74106398983271    8.10934333162598
H         3.91283556917622    8.70946317446154    7.91495805202863
H         3.67516903595299    7.47343140435633    9.14138741356595
H         2.38344159817398    7.83165918763020    7.99345959397594
C         5.53845919249590    6.68288766343239    7.14451021455876
H         5.91090586262380    5.88292107077294    6.51386007729393
H         5.91826184007397    6.53110330491621    8.15216141757947
H         5.92987691928987    7.62888472629070    6.77945703019764
C         6.74291385366331    3.40216259477326    5.93939969644853
C         6.48516835173737    3.00819921820748    7.21598927669846
C         8.08119295049267    3.62070115082604    5.32160906112244
H         8.36195224991411    4.67459802670725    5.36201383028868
H         8.10730961973910    3.29613156944988    4.28637660124414
H         8.83249732885458    3.05680002603935    5.86949634135374
C         7.46335527364511    2.66977898944933    8.28642545774837
H         8.42802285112232    2.43729283900031    7.84195958210303
H         7.14145337765608    1.80580404523643    8.86091525121976
H         7.60364798633545    3.50871249410660    8.96913094706550
C         5.28363742478766    3.98657641868862    3.94202518852852
H         4.19593060331216    4.10254757971387    3.89083431883912
C         5.93169981309884    5.30821206392313    3.53381703638810
H         5.63809338666078    6.10158713854958    4.21519492763098
H         5.58701023882559    5.57420413807833    2.53765627881750
H         7.01547036984239    5.24737270594314    3.50795042970485
C         5.65592587614774    2.84341658623084    2.99907921241943
H         6.72762115703749    2.67373877854562    2.94375071351971
H         5.29450314005151    3.07293403344781    2.00062373374632
H         5.16300145508371    1.93555115684722    3.33340780781479
C         4.33139112952162    2.64684530336071    8.53048425507195
H         3.30370421432662    2.93898156658105    8.26749884058951
C         4.33996329757592    1.13763843533730    8.77327926115574
H         4.14285779308321    0.61294181570338    7.84102334046216
H         3.56239273995938    0.88122128276934    9.48806886716447
H         5.29331823465450    0.79448786343476    9.16787237825974
C         4.71856656533704    3.43604778727946    9.77976862082622
H         5.62922474157533    3.05979549786117   10.23650469170066
H         3.91613167734495    3.35850204547389   10.50922513192620
H         4.85590521602356    4.48595793931073    9.53178717327011
C         0.73717273385055    3.74067595632355    8.39873259597913
C         0.26936005511437    4.40417636563069    9.55585340465780
C        -0.41252351395642    3.69834610658042   10.52933518095817
H        -0.75236500419958    4.22279723194989   11.41324358500884
C        -0.67269146295306    2.34024695046066   10.41055790848027
C        -0.23191916586687    1.69493292960812    9.26505833801809
H        -0.43486827219328    0.63916486531396    9.14077045337163
C         0.46063295908134    2.36134357787552    8.27094770675999
C         0.89170227859034    1.63992416028524    7.03436636572549
H         0.42872409501769    0.65893184652693    6.96814827734776
H         1.98086776589059    1.50149448184255    7.00263488096740
H         0.61184194923612    2.22017108132355    6.14131413580544
C        -1.43487976123973    1.60530037896429   11.47381706354074
H        -1.18993149524219    0.54519065144734   11.46321973646392
H        -2.50899448817536    1.70454782127907   11.30728946836556
H        -1.21134225379411    2.00760478992481   12.46041255227969
C         0.53014583620905    5.87257464635300    9.75310437747619
H         0.11909348085458    6.20308523815774   10.70421140975470
H         0.06579969907341    6.46679613314337    8.96275926503052
H         1.60118670727639    6.08000822304677    9.75238808221768
C         2.50307737439203    1.82843677353006    3.67447135250392
C         1.77720938509888    1.40893460847422    0.68859702981430
H         0.83851316430855    1.95238983469592    0.74909427551637
H         1.67970143098293    0.67635853583591   -0.10823505174454
H         2.54842871264597    2.11417189076756    0.39227078390316
C         3.74538914917230   -0.51950940861075    2.07184192017015
H         4.56173003719855    0.05006975709917    1.63716382382594
H         3.52810828124934   -1.34619349114302    1.40039498527127
H         4.10252078546823   -0.94233965789067    3.00644014916700
C         0.74815470204147   -0.56225818847300    2.84214805595030
H         0.96587812720166   -1.10220421353338    3.75880076377393
H         0.53397943904059   -1.29615683309453    2.06952938781086
H        -0.15739175162069    0.01282415365541    3.01093555667958

