67
CSD_code = BUJRIJ | q = 0 | S = 0 | Stoichiometry = C24H38ClN3Ru | MND = 9
C         5.42596406483560    9.79694186381887    6.37525721917792
C         5.26101714214167   12.19308149124139    6.86553882471736
H         6.36275211660436   12.14918920015966    6.88600319367306
C         4.79242734863909   12.71550044944863    8.22491407568730
H         5.21647055850171   13.69890940061295    8.41257986750544
H         3.70894068582472   12.79280502657112    8.22924513115307
H         5.10438374061544   12.03814532151927    9.01746701311346
C         4.84876950701816   13.15363037800893    5.74784714617537
H         5.29200972165347   14.13163241425456    5.91970349669999
H         5.18187419833958   12.78185044381923    4.78046219547000
H         3.76757373066485   13.25726465637795    5.73757105971229
C         7.50515871077708    8.91521204789125    5.35936596184301
H         6.92307500705941    8.00217707055013    5.21004792414615
C         8.87264794096457    8.54769010948953    5.92534771555549
H         9.40648321583930    7.90752962903377    5.22872621420577
H         9.46581720320814    9.44309248925403    6.10019338749445
H         8.75402427487825    8.01730205601442    6.86618833780410
C         7.63101600765929    9.65214674891906    4.02371544980429
H         8.11288341906220    9.01783433192035    3.28460988244523
H         6.64474665725325    9.92784578970616    3.65473487554184
H         8.22273858526401   10.55877292064317    4.14170046592732
C         5.06819722265864    7.45889207053676    6.54706264703918
C         4.63337971496970    6.30918193437166    5.87620934225422
H         3.99693229170370    6.41193401948921    5.01335369709422
C         5.01116411749496    5.05296440211740    6.30226890331383
H         4.66288015213876    4.18379027928623    5.76113342788426
C         5.83489772130985    4.87998387516291    7.40859799118564
C         6.25775102120194    6.01594938847196    8.08661335709101
H         6.88707193714378    5.91202411492849    8.96008598141761
C         5.87921161808544    7.27740163275775    7.67786640933949
H         6.21145527663483    8.14407150655650    8.23171723787018
C         6.24770511229796    3.50698425494158    7.84563525472949
H         6.81510627070401    3.54867265562856    8.77212415617753
H         5.37423743363719    2.87453781571080    8.00002415042965
H         6.86752798746941    3.03597664445625    7.08241242475639
C         3.09748235431397   10.59199199898012    4.30693050815550
H         2.63606285791734   11.57711568425173    4.23774400685378
H         4.03893841427952   10.51468787487685    3.76458013805046
C         2.26510186085390    9.45042501473364    4.31619752610768
C         1.08245955522303    9.60299577731265    5.08127640124744
H         0.58031327403209   10.57034620132749    5.01116521538028
C         0.12909955554933    8.45602371251378    5.35144570601908
H        -0.17066192295814    7.98714902828543    4.40855730247177
H        -0.77239079703154    8.86275695906796    5.81120523974319
C         0.78086753922601    7.42521822967325    6.28897290603675
H         0.04219300425223    7.02176919678241    6.99013630110237
H         1.16628407873707    6.57715666891503    5.72017192320761
C         1.92833328251121    8.05415200381849    7.05198755091506
H         2.74238082866227    7.35419098723153    7.24366227519317
C         1.73364826428220    9.06622658935218    8.02631830638965
C         2.94602860682515    9.61412698278367    8.50904876792877
H         3.77842469515999    8.94236876679980    8.72529833420998
H         2.86647506855320   10.44898311412672    9.20095831607439
C         2.64347980964576    8.21468966579745    3.55420668481449
H         2.21055076471603    7.31346314017405    3.97485355759148
H         2.26273899282517    8.32777222856754    2.53625453717341
H         3.72508559342133    8.11013670832809    3.49960179049852
C         0.39879256316062    9.58281853810335    8.48335396673857
H        -0.41253714411147    8.94555350135716    8.14314410690616
H         0.39033580498261    9.60951387822655    9.57269204701933
H         0.22433979104626   10.59916610119837    8.12790314169593
N         4.72440059360462   10.86946760667016    6.64108104387068
N         6.80061625615293    9.73578335521893    6.33154744569326
N         4.66209470559760    8.71763566327115    6.14347746370434
Cl        1.72414937623130   11.97562586902326    6.78393702644215
Ru        2.86230657612017    9.90899269082811    6.36012027058795
H         7.25531408196292   10.62857782873292    6.46984577374120

