44
CSD_code = BUJVEH | q = 0 | S = 0 | Stoichiometry = C21H17FeNO4 | MND = 7
Fe        3.92403285124694    0.63403358308460    0.62334382145377
O         6.10215995791249    2.47865045456632    0.01088935679827
O         1.88705063711852    1.71982910393191   -1.16794307354464
O         5.01157563425126   -1.37414041807190   -1.20717835257992
O         3.06991281197916    3.27425181137098    1.74860156976376
N         2.19111156472478    1.32843532633004    2.51460741373656
C         5.26015066503099    1.75226671621292    0.26366664304363
C         2.66876102556220    1.23790403176218   -0.48379468205623
C         4.58848940662865   -0.66311745909315   -0.41600111629882
C         3.00490979315352    2.06757179969976    1.70610731677433
C         2.33960674083844   -0.07472081181465    2.32639144944146
C         3.59316161117611   -0.64403385820262    2.52315728180161
C         4.78034311468028    0.13920458798904    2.63175971359918
C         1.08439840225173   -0.89605847221228    2.32348417955426
C         1.31195710249525    1.90475332867958    3.52015733678945
C        -0.13542872686079    1.87925190036373    3.10548587984675
C        -0.50229775150005    2.36410668781914    1.85538681631162
C        -1.82545411623663    2.33597908464257    1.45555114616546
C        -2.79701474078139    1.82971848881149    2.30361065910469
C        -2.43979822210142    1.35402526397691    3.55323969055260
C        -1.11400047537548    1.37529854250197    3.95066271115973
C         6.09101412301417   -0.49070841144525    2.81431483793286
C         7.07105500942202    0.17554816171130    3.55237311525144
C         8.31726625026666   -0.38659553280280    3.75006992665744
C         8.61474547034905   -1.62662567023333    3.21008885935223
C         7.65674987190962   -2.29496347619754    2.46439715806254
C         6.41100827713575   -1.73404860562303    2.26523355283860
H         3.66970128370464   -1.72502143977223    2.46935668180621
H         4.68563158102586    1.07474932547776    3.18499888685808
H         0.33866214380479   -0.46449765789350    1.65947718148430
H         0.65440700234077   -0.92672851908508    3.32603177226713
H         1.29512474980741   -1.91476661304893    2.00841013062940
H         1.64257978702993    2.94409020183644    3.63000213850068
H         1.45338647699705    1.38393077215726    4.47314491742288
H         0.25571629832524    2.76653415407567    1.19923100460448
H        -2.09997166556382    2.71301510552084    0.48165421027440
H        -3.83074656482912    1.80941115677465    1.99227660030396
H        -3.19405384387588    0.96286922009367    4.22014679548576
H        -0.83890324543373    1.00276327426285    4.92799474527986
H         6.84713383527269    1.14579122959317    3.97286064692663
H         9.06053386823888    0.14480838133858    4.32605885994239
H         9.58878031305126   -2.06672301347481    3.36206470466949
H         7.88598897578299   -3.25739444734869    2.03066065323450
H         5.68586271603055   -2.25724728826362    1.65846685879865

