41
CSD_code = BUJWEJ | q = 0 | S = 0 | Stoichiometry = C19H13N3NiO5 | MND = 6
Ni        0.72224734799783    1.74748364339488    3.41892064993281
O         3.81284720158785   -0.69912567436832    2.96826095732117
O         1.82595557959312    0.09771455694883    3.59388021982026
O         0.35716728763238    5.21597083613893    1.61807649767365
O        -0.08236648987361    3.41468685276778    2.85614789665873
N         2.02773343527362    2.23124387020997    2.30432696887936
N        -0.59635199332354    1.34071108499835    4.65789028063413
N         1.73279189303807    2.56578461368638    5.37035073776252
C         3.10319386157048    1.45478586152159    2.17995766703041
C         4.18133677125319    1.85781088036405    1.40644230703252
H         5.03699572709444    1.20608285478169    1.32391052436682
C         4.11904672595979    3.08952565778099    0.76801829573812
H         4.94355777285456    3.42623129596476    0.15665050550269
C         2.99377090332715    3.88804059167507    0.92451585524822
H         2.90191551661828    4.85568129034905    0.45686890541020
C         1.95281692310832    3.42298385656841    1.71414943467915
C         2.94575690579346    0.15086451221362    2.97909607426403
C         0.63050672879065    4.12207699192978    2.06579451041879
C        -1.74704315848318    0.79826461841008    4.30771170793934
H        -1.88675266157627    0.59498124658898    3.25384642712765
C        -2.75198411001006    0.49080346187790    5.22827340812422
H        -3.67200923633725    0.04838292875683    4.88097769776022
C        -2.54823601111620    0.75426456896584    6.56007629002520
H        -3.29879695862639    0.52262570833957    7.30145958285644
C        -1.33720862405439    1.34281270471418    6.95856057349692
C        -1.05117471535877    1.65148315665987    8.32032227263148
H        -1.80062507797975    1.41308799967824    9.06050422277299
C         0.12197194620952    2.22330042090455    8.68004615568367
H         0.33506630552967    2.45061525385365    9.71419977205967
C         1.10478788833349    2.54751473938438    7.70239907845710
C         2.33149019049864    3.15300525161324    8.02315062240121
H         2.55858786137424    3.38270958455150    9.05435105233727
C         3.21891412573496    3.44347346320668    7.01677389203539
H         4.17040070990401    3.90602424320153    7.22624177739640
C         2.86900997700996    3.13304216706548    5.69716945222526
H         3.54815334529183    3.36030768975869    4.88534630255091
C         0.85456236998818    2.26180982234702    6.34180108183765
C        -0.38109878343372    1.63289971135955    5.95948001009821
O        -0.30550352276676    0.27334746857480    1.68449994478258
H         0.21930755781108   -0.48210884378603    1.98018650996805
H         0.03765848375963    0.55309905704869    0.83116387705150

