24
CSD_code = BUJXAG | q = 0 | S = 0 | Stoichiometry = C8H9MoNO5 | MND = 6
C         3.00207697058002    0.50034729408772    4.28233748093657
C         1.78366999536414    0.31822965708701    1.85303036913953
C         4.35681352080037    1.30924752638363    2.06628885030218
C         3.51622923092535    3.15442233276518    3.95064545984823
C         0.90756200917267    2.18756720590632    3.73318035155619
C         0.89668995918540    2.95890099016765    0.49246633482366
H         0.64741178432771    3.70645882362508   -0.27494932839102
H         0.07018058928859    2.90230366737688    1.20213049354160
H         1.00547912715616    1.99012763071160    0.00412858523245
C         3.20044925106313    3.38811967254659    0.18789996756225
H         3.34050016401011    2.41212221855268   -0.27920141119164
H         4.13616886050843    3.69013751300044    0.66065982268810
H         2.95561360915567    4.11824053574298   -0.59761408100242
C         1.95362694025454    4.65922429226416    1.74175231090913
H         2.87655673319253    4.99988425178374    2.21180950292726
H         1.16080171575029    4.65274719451675    2.49096576551958
H         1.68275358887844    5.37625238288522    0.95284754686883
N         2.13405186095968    3.31713565937031    1.18688272134377
O         3.22346582149793   -0.24912537335219    5.11307223615017
O         1.33675556155873   -0.59749627145041    1.34174457070126
O         5.37383619350233    0.97139842732941    1.67856453624323
O         4.06518057079621    3.87019358836624    4.64777168120875
O        -0.06669720942598    2.36665464399367    4.29799514779746
Mo        2.62342315150321    1.77900613633962    2.86619108528715

