45
CSD_code = BUKCAN | q = 0 | S = 0 | Stoichiometry = C18H24N2Pd | MND = 4
Pd        4.61060485906323    1.10594523329755   -0.90351621296919
N         5.76927461702835   -0.14774501368690   -2.41468003709327
N         6.31189947289650    2.16644007300370    0.18588546461903
C         3.05150781668385    0.48334736430605   -1.98166269547113
C         1.80473195724999    1.07910788500500   -2.15251081298148
H         1.51307326432174    1.92255827833500   -1.53818824597577
C         0.91067833036108    0.60276719551660   -3.10207259486958
H        -0.05578678804974    1.07524176722908   -3.21258924748162
C         1.24871404984321   -0.46826308737306   -3.90889772684130
H         0.55091329487288   -0.83956276006932   -4.64589814133046
C         2.49607394568979   -1.05507248309115   -3.77831323369846
H         2.77563093637943   -1.88204156259757   -4.41882226181020
C         3.38877985816803   -0.58221943248868   -2.82906267659158
C         4.76239575092970   -1.19167316446536   -2.67716748384482
H         4.75592743690312   -1.87451190374565   -1.81657708679219
H         5.03863861569077   -1.77173186243741   -3.57494139800941
C         5.93457798083361    0.68839738624550   -3.60181228026934
H         6.27374520095559    0.09434667375544   -4.46481478796871
H         6.67256893439917    1.46865396343301   -3.40530241943705
H         4.98069924304702    1.15961104697556   -3.85267700434554
C         7.03515191027920   -0.78639878323871   -2.08200949221636
H         7.35329878836532   -1.48166342899985   -2.87467513355240
H         6.93354327260661   -1.34716589380903   -1.15077587452959
H         7.81668823697936   -0.03629740130377   -1.96004931337284
C         3.52458300452655    1.91826319622823    0.55938721562946
C         2.31276637623552    1.49403952325763    1.09783426649795
H         1.74929150405063    0.70215728070985    0.61895110130368
C         1.79989981591125    2.07862001468552    2.24808302583264
H         0.85303612111400    1.73946199931226    2.64535581113087
C         2.49236480340951    3.08879300605348    2.89028419951425
H         2.09029912261784    3.54539465582697    3.78344618921203
C         3.71554322201661    3.50305644118865    2.39088279501129
H         4.27275664985092    4.28034416383706    2.89832918313948
C         4.22827314816185    2.92122876618893    1.24200320422184
C         5.56991533885702    3.33750748011968    0.68704156801496
H         5.40987613124638    4.01939313290031   -0.15943348423014
H         6.16513238897540    3.86889698970701    1.44999987239334
C         6.68991824449709    1.30505594831601    1.30432544081907
H         7.33808358707547    1.83775123912203    2.01763817814654
H         7.22699176444050    0.43013717799013    0.93259353448382
H         5.79083142928960    0.97095858466271    1.82839723836836
C         7.50780509709206    2.62727522085843   -0.50583930198670
H         7.22590495031183    3.20401931940755   -1.38895134976844
H         8.11607280932392    1.77772357368919   -0.81672211815049
H         8.12552350549784    3.26595219614258    0.14492412725025

