37
CSD_code = BUKHIY | q = 0 | S = 0 | Stoichiometry = C15H18FeO3 | MND = 8
Fe        0.10107238387003    1.45595511076033    0.20138976346729
O        -1.85257893417145   -0.12714330373808    1.64286229825377
O        -1.01057562448459    3.65632009532648    1.73044330863842
O        -2.35275324647160    3.27400902555989   -1.66830955650357
C        -1.05197388012157    0.45884292390539    1.06446245567923
C        -0.56284262288680    2.81687850545152    1.09684909400565
C         1.97705673301019    1.57248430702844    1.17701336275372
C         1.92352170573664    0.34976977722767    0.45941455814616
C         1.59174713415945    0.46729410547137   -0.89267502448068
C         1.49722672057850    1.89797563329622   -1.29054122706882
C         2.69505480234443    2.76608985551427   -0.95840159335410
C         2.76087791830657    2.73921787416181    0.58843006965966
C         0.26468587749992    2.32663746466251   -1.75084186548414
C        -0.86652024369046    1.44311318403803   -1.68511709797049
C        -2.18764524987329    2.07135425512672   -1.76422081556800
C        -3.34282133475620    1.11199785510418   -1.95553756309540
C         1.64747651291306   -0.66505152804925   -1.87375002958795
C         3.96063327721904    2.14976780175319   -1.56719567154709
C         2.53520195250358    4.20050175814910   -1.45932064781544
H         2.09430121027634    1.49778099906400    2.25496574170651
H         1.99115133617127   -0.61691151721660    0.94382017331826
H         0.07063923712806    3.36641391918333   -1.98259730380563
H        -0.81776969182532    0.43460743516015   -2.07593355642101
H         3.80078572579230    2.67102517800468    0.92567694237328
H         2.35490535908083    3.67067896616356    0.98515843231109
H        -4.28640193906566    1.64491577126612   -1.88241592799371
H        -3.27123267289643    0.64462682268261   -2.93606302599002
H        -3.30200256295386    0.33248049100435   -1.19910079900059
H         1.11326367471236   -0.42429081510874   -2.78955535187051
H         2.68601963097029   -0.86756409956535   -2.14277110711555
H         1.22818420120232   -1.57175311319431   -1.44183381000830
H         4.82434181086590    2.77615109132443   -1.35455090818390
H         4.14496231622904    1.15972556514472   -1.15630404786736
H         3.85867287582114    2.06501208008238   -2.64763034784899
H         3.40611495188120    4.78871157442765   -1.17779540363623
H         2.44366961588874    4.22222241770792   -2.54335611757028
H         1.65475103903611    4.66745253311907   -1.02406740052580

