27
CSD_code = BUKJIB | q = 0 | S = 0 | Stoichiometry = C8H13MoN3O2 | MND = 8
Mo        7.93823869850430    0.98445012607299   10.36803675319591
O        10.25640785762199    0.71987706174495    8.36148909394048
O         7.42702202862894   -1.85154296299865    9.28750364355715
N         6.00006244406764    2.40765473438000    8.25905260765660
N         8.05251319190604    3.22956990800961   10.91249441484721
H         8.96366873900178    3.61051716309466   11.16307433889382
H         7.76736305140830    3.68637036728020   10.04362714968595
N         6.02290166767312    1.36167256237803   11.60767899813998
H         5.25635761983771    0.90085659150569   11.11957611602302
H         6.04715736846851    0.98466111693614   12.55488578125955
C         6.72160896579032    1.79908492144905    8.92219195559976
C         7.56890063649741   -0.78595754138618    9.69170350989991
C         9.38486065977006    0.86353972107297    9.09556787211811
C         7.07507456371054    3.53973680194110   11.95185217057331
H         6.87071502501511    4.61846734404382   12.01900974572858
H         7.47101070999494    3.20905364575755   12.91965777373645
C         5.77202843783605    2.80152776453889   11.65244566034871
H         5.01717396657277    3.06605051791018   12.40690191413539
H         5.40835155638771    3.11491086839744   10.66766417148653
C         8.28484666012896   -0.60724135341155   11.99667457875192
H         7.46686365067120   -0.94550994444699   12.63307784592857
H         8.92752772182251   -1.42357292155726   11.68210135051232
C         8.90394587137880    0.62241292374419   12.30665429855852
H         8.63274924391813    1.21238733314640   13.18088669860167
C         9.97115007420928    0.97130708875360   11.45490281450439
H        10.63342012982079    0.17521325656312   11.12944187960663
H        10.50497945935277    1.89920290508047   11.65714686270826

