90
CSD_code = BUKJUO | q = 0 | S = 0 | Stoichiometry = C36H48N2O3Ru | MND = 6
Ru        1.77778712865615    3.44266663331483    2.67623290382480
O         0.69790665496778    5.23489024690794    1.76368584357057
O         2.99266004867132    4.99463864418494    3.63491781838739
O         1.47474487929498    3.99731626572556    4.85134470967030
N         3.75459428365997    1.38797528587658    3.78983910802160
N         1.52874393009268    0.93796212848814    3.18535171495855
C         2.57409682166653    1.74808219349381    3.29126796256738
C         3.95659476349160    0.17877274931466    4.52719434425461
C         3.60981704002988    0.15164929125020    5.88014930543157
C         3.72859696523177   -1.04334917102331    6.57247424530869
H         3.44951709155155   -1.07553039725816    7.61654543519082
C         4.19285734312282   -2.19653596032727    5.95707425670103
C         4.60262898891814   -2.12207073221717    4.63572108294775
H         5.00669642503200   -3.00028474377571    4.15245418158152
C         4.50638342386476   -0.94311534378086    3.91116790792126
C         3.16745699097866    1.39370273801557    6.59395269430462
H         4.04094979589526    1.91167079306548    6.99433594624327
H         2.51980383100962    1.14930833191364    7.43210643134253
H         2.64438014256035    2.08152810001547    5.93229294941952
C         4.24018023629243   -3.49394004704205    6.70481048714875
H         4.45205326396159   -3.32950281193721    7.75889828903178
H         4.99705011711407   -4.15589331096474    6.29091288384200
H         3.27421622632429   -3.99400551739226    6.62903265940003
C         5.03182920419075   -0.88515011213836    2.50972113232634
H         6.11750957799673   -0.77888947991720    2.53413299212930
H         4.61657065755239   -0.04188521036096    1.96727325734040
H         4.80028914647324   -1.80468154298639    1.97842343080953
C         4.85397832766288    2.32947170963530    3.80210611710107
H         4.52100837998529    3.26466376202539    3.34669307941221
H         5.69671390032662    1.93012230043445    3.23385825379431
H         5.18558172249617    2.51901620518743    4.82518079261346
C         1.40408551048877   -0.46847269370944    3.34480007385293
C         0.90630850027941   -1.00672173047130    4.53065839344556
C         0.87648136724307   -2.38605442354140    4.68013765645162
H         0.51262569288406   -2.80170758387325    5.60953405658260
C         1.29660100531812   -3.23359971312026    3.66873356066745
C         1.69339551201731   -2.67656686324067    2.46105498435553
H         1.97079020260041   -3.32770094057247    1.64352384518245
C         1.74042770389859   -1.30453539279914    2.27498534377551
C         0.35880180448715   -0.13002117733026    5.61517227017764
H         0.61995239232038    0.91151701372345    5.45337897051653
H         0.72718459234400   -0.44678016756397    6.58796558881455
H        -0.72907927148256   -0.21173514230552    5.62835147515925
C         1.32024921827806   -4.71970626988796    3.86302486584574
H         0.69485190304299   -5.01402016512417    4.70234093643719
H         2.33986512732565   -5.04959961726996    4.06450452303435
H         0.97397314736193   -5.23367428382922    2.96868243905384
C         2.08771959041919   -0.74193951283787    0.92862317046923
H         2.84391752589292   -1.34762137325460    0.43537293653154
H         2.43404937347382    0.28665298170041    1.00136015299513
H         1.19713032523585   -0.74909801955035    0.29839552038006
C         0.50304935888646    1.78146732871504    2.56338637164473
H        -0.38752210972364    1.79827706404069    3.21631124942136
H         0.20019258852602    1.34324265575458    1.60107682197390
C         2.49850949181295    3.40487796254909    0.92704795086917
H         3.19835216594054    2.69796736070476    0.46059234634570
C         2.26827198188943    4.56592446775725    0.13229813553158
C         2.94196959135528    4.82322321250093   -1.07367776840627
H         3.67684034475678    4.10831671740616   -1.41581918642904
C         2.68087299896138    5.95648938611784   -1.81246030528266
H         3.21146125780928    6.13651000376600   -2.73584796803815
C         1.73385863094116    6.86870340348723   -1.37149668008599
H         1.52669428551149    7.75858118558335   -1.94675457239218
C         1.04474252386115    6.64736530528237   -0.18820275407684
H         0.31556155437278    7.37473503121459    0.13688639701205
C         1.30431704456657    5.51429050112835    0.56384955481457
C        -0.69677193846465    5.51335980512136    1.89374680501543
H        -0.88242976741185    6.57351127507712    1.66932282862876
C        -1.48376832157784    4.62836925639511    0.92924708541697
H        -1.23458474970210    3.58510512941382    1.12234161990905
H        -1.22184535415356    4.86224027548084   -0.10089961896597
H        -2.55175258703077    4.77586152280730    1.06294237412922
C        -1.06181671899978    5.23217862593719    3.34329110367451
H        -0.69268098778993    4.24270333701608    3.62206547775260
H        -2.13951656640799    5.26033829232010    3.47883389375252
H        -0.60460587331839    5.96779677805724    4.00076860082227
C         2.33669595087979    4.89509923667377    4.69738381948376
C         2.60722811932014    5.87921394754686    5.84551838696348
C         3.71169775837975    6.85536493193107    5.44888282581094
H         3.42924459292897    7.40629510585966    4.55461404411450
H         4.63300716368534    6.31921585564481    5.23280899096544
H         3.89545395374607    7.56257667725289    6.25582677489539
C         1.30892051989775    6.63381415910083    6.14583331325670
H         0.50625976756899    5.92824311873339    6.35198990353121
H         1.02478462282111    7.25581255779651    5.29795529660581
H         1.43958854641272    7.27831942116616    7.01375856166102
C         3.02468241546627    5.06762326126929    7.07484918746045
H         3.15801006355604    5.72541427445898    7.93214182255045
H         3.96319548506281    4.54953256332017    6.88710717372604
H         2.26090366315966    4.33072108270597    7.31252715563706

