48
CSD_code = BUKROP | q = 0 | S = 0 | Stoichiometry = C14H20AgF3N4O6 | MND = 5
Ag        4.90771516595035    3.75237762705309    9.84633953506938
O         6.88745404377315    6.42835641495093    9.23372438344688
O         3.57330156728296    4.38031280369056    7.09576685029034
O         4.61480787850625    0.85459505243848    8.87134589058551
O         7.91253116405385    2.52677483470170   10.81128399352213
N         6.75652662818026    5.33843034998228   10.08071445137794
N         4.15150023256185    5.15376142457669    8.09180400473383
N         4.24816745115733    2.08899054117842    8.30785787743877
N         6.83386733055805    2.12986821643898   10.03437695685624
C         5.61765775365828    6.87104346307421    8.77943758728576
H         5.80604477932358    7.86973825625148    8.37874728797453
H         4.92191593467062    6.91901062039955    9.62544416388249
C         5.05524053551972    5.97024595037001    7.71344459042031
C         5.59372797743311    6.10032651348440    6.32640173955629
H         6.66362385038753    6.29343754615780    6.36146762772534
H         5.11084490866928    6.93706578353209    5.82137566382668
H         5.39521608268857    5.19404533160851    5.76055831717879
C         2.53193692591642    3.57816995162411    7.60499585273888
H         1.88635216554950    3.36891300921413    6.74612972638830
H         1.96217602033304    4.13004097093424    8.36403939424329
C         2.99102988729413    2.28562334396163    8.22236142939949
C         1.92610804690263    1.36814116562996    8.71426927077019
H         1.64769981225359    1.69424083693518    9.71632268779392
H         2.29996295697837    0.34953954654883    8.77737816305454
H         1.04506649219112    1.41433005429285    8.07970297685034
C         5.92293330192415    0.48569976924403    8.53132752567072
H         6.12758597800101    0.73513810996581    7.47902033538954
H         5.93760013127827   -0.60433089800660    8.64009721812068
C         7.02505649753054    1.05859022984588    9.38193227351201
C         8.30930483065216    0.29075608427825    9.40842592197446
H         8.37977703315660   -0.25463503072815   10.34905919431292
H         9.15043093502984    0.98026298554387    9.37128449064427
H         8.36710914714748   -0.41319606820624    8.58358866516639
C         7.64924099193610    3.71565326024769   11.53833461554825
H         8.39514350114234    3.72188456998358   12.33523185086868
H         6.63703029037676    3.68255842231873   11.95566443021590
C         7.81191573510688    4.91839232602501   10.64672178165666
C         9.18558358784057    5.47142874155455   10.46005136309758
H         9.47040153865374    6.03343424584304   11.34920413745736
H         9.22085917594288    6.13441321699155    9.59982410865221
H         9.89563838614239    4.65647737222079   10.33410103484694
F         0.97211228713259    3.52848108368162   12.92864495495413
F         2.21322645067947    1.84495452051000   13.43804652018535
F         2.60884036502072    3.77942681509178   14.30458090709007
O         4.39764044470520    3.55443970716361   12.24205057589331
O         2.65821057952248    3.58974994828478   10.86697829881100
C         3.19906599341826    3.47683072478239   11.96866698941374
C         2.24331722587512    3.16671025433691   13.16857238411256

