41
CSD_code = BUKTIL | q = 0 | S = 0 | Stoichiometry = C21H12AuF5N2 | MND = 2
Au        4.61068160393919    3.37419137455499    9.62574690588512
C         5.28496584006560    2.12030108527808   11.05099599266432
C         5.09247604386081    0.74466087722322   10.99529668160362
F         4.42690018182481    0.22738218420437    9.93860903732102
C         5.54335457865417   -0.14430386672502   11.96300596007718
F         5.32119301798352   -1.46364304371627   11.84500760512043
C         6.23244997700544    0.34518265155510   13.06505714022064
F         6.67864606958821   -0.49080590751539   14.01370552639166
C         6.45313819237164    1.71222297882550   13.17127340046611
F         7.11805173137718    2.20181519526857   14.23057718208017
C         5.97937098247329    2.55546725639678   12.17390385897129
F         6.21499818314539    3.87860476173270   12.31589835661787
C         3.96174711827800    4.53292398448715    8.27297723170250
N         3.54031662962974    5.20912655985649    7.42763013323180
N         1.48809334681948    8.43690207496849    3.54133949955545
C         2.06007389792702    7.51950515286501    4.37361146363834
C         2.67490302589784    6.30680996639704    4.07251558340611
H         2.77366338129032    5.96086909574956    3.05571743684618
C         3.16513028975286    5.54679658466883    5.10954278673506
H         3.64797715218299    4.60122451575270    4.91692121979381
C         3.04813054346372    5.98953185494313    6.43674633881575
C         2.44329285965477    7.20122661180985    6.75698124237801
H         2.36860024212342    7.52175718260449    7.78426433857242
C         1.94879951868478    7.96881942467584    5.71892011471721
C         1.02949330900844    9.49460155094971    4.29786874710481
C         0.40001455348962   10.66426115720076    3.89553581755903
H         0.20401677426766   10.87298857174174    2.85500919142375
C         0.03057870666463   11.56665620189069    4.87424755660727
H        -0.45955612317022   12.48473122599420    4.58679725244353
C         0.27803978308141   11.32172039314158    6.22371466964561
H        -0.02593109367187   12.05366556921209    6.95625311134680
C         0.90550151594424   10.16244224911765    6.63199726457118
H         1.09880656873239    9.97279856718551    7.67658472319515
C         1.28639315435897    9.24056548168014    5.66506172848209
C         1.45594653928329    8.36575496018894    2.10349881778171
H         0.55193372003934    8.87107419753922    1.75400102260518
H         1.39085123984918    7.31513221401433    1.80912874300768
C         2.69296392453546    9.01198685536104    1.48213205040457
H         2.75464785674867   10.05960884034275    1.76715190615176
H         2.64456635353518    8.94638190310275    0.39883928526073
H         3.59467880930673    8.50876150547688    1.82353307559685

