83
CSD_code = BUKWUA | q = 1 | S = 0 | Stoichiometry = C41H35OsP6(1+) | MND = 8
Os        8.48149884818691    5.87229216824839    4.19309089984963
P         8.64044881227812    4.66914449783350    2.20791348227612
P         6.93244495607714    4.57032043987214    5.34240488239252
C         8.91627035117349    5.68444580282633    0.71634413342864
C         9.14433296602850    7.05227858172734    0.79934118601798
H         9.17440917129277    7.53577395431162    1.76840648258157
C         9.34504148221517    7.80286993610204   -0.34670553562394
H         9.51600573415397    8.86592361306198   -0.26980810122279
C         9.32567791318166    7.18825763761120   -1.58664233270653
H         9.47992882415438    7.77153675392474   -2.48108334838118
C         9.10923545202054    5.82130000905682   -1.67852760474212
H         9.09887731783997    5.33963037567132   -2.64433837931498
C         8.90343654484211    5.07043386421974   -0.53717908392543
H         8.72832768899990    4.00569388816804   -0.60972848380507
C        10.08241877785081    3.55448558532788    2.23157091668123
C        11.10875450622317    3.61747346133618    1.29552982383297
H        11.07889110635221    4.34458958490339    0.49738365541333
C        12.18142814929206    2.74676464392545    1.38890448673693
H        12.97515777982625    2.80097756979151    0.65930883894657
C        12.24179989517872    1.81313961427418    2.40978731467288
H        13.07895498032252    1.13535367978797    2.47370741920638
C        11.23154331233560    1.76071253905160    3.35727620757408
H        11.27739833106679    1.04482973705615    4.16470864165937
C        10.16389572782127    2.63388103941812    3.27495074634980
H         9.38993650289316    2.62092647486938    4.03073022817485
C         7.27977098163578    3.60119277627478    1.61589788231801
C         7.19197128640847    2.25325430808387    1.94344953409705
H         7.97029055118392    1.78128411338391    2.52281676007506
C         6.11516719023624    1.50161476566652    1.50459062560446
H         6.06014725754058    0.45368194812354    1.75780713357978
C         5.11935982650673    2.08352120782462    0.73951296655406
H         4.28398237466204    1.49246764433171    0.39733533238400
C         5.20387105400457    3.42570488829059    0.40414657671722
H         4.43748119115845    3.88233861309583   -0.20338918571637
C         6.27382950667780    4.18177270936668    0.84140603578886
H         6.34029807974022    5.22885000982793    0.57074729128584
C         5.17649788241094    4.49323849848307    4.85477442706169
C         4.22894581258719    4.05693433978029    5.77964058563324
H         4.54197542226467    3.74626582334803    6.76659033146028
C         2.89259769346895    4.02127330854693    5.43008628495065
H         2.16089671794266    3.68387655125154    6.14814201399203
C         2.48944113525033    4.42161412439440    4.16484274037342
H         1.44344035504724    4.39874199394285    3.90099903526231
C         3.42839975566300    4.84954104790055    3.24174386784311
H         3.12149379691827    5.15802269119906    2.25410768492997
C         4.76766358236401    4.88398171639262    3.58825428232213
H         5.51800445776464    5.19200783376195    2.86921135099643
C         7.34074436231823    2.82110344487370    5.63272226981735
C         6.56161614716382    1.79465070785428    5.10820109722482
H         5.67197069997763    2.02928752551939    4.54243510237091
C         6.92870105146862    0.47567181933649    5.31318854487165
H         6.31781770722884   -0.31683785392192    4.90848981784487
C         8.07019754723755    0.16973491600346    6.03547941693289
H         8.34911017329383   -0.86017323218646    6.19642448039258
C         8.85764315907263    1.18854779808231    6.54977307560223
H         9.74977502265294    0.95428452869181    7.11117590664390
C         8.50147772507357    2.50785801394078    6.34133475033610
H         9.12425100402510    3.30324868805511    6.72748986246623
C         6.70768898500492    5.27651033379740    7.01217961451267
C         6.85484728008577    4.56421314103420    8.19641790758865
H         7.12973651899692    3.51938344423368    8.17678121204283
C         6.64017413454280    5.19578251549124    9.41065683365314
H         6.75855069777217    4.63857808996855   10.32760978460533
C         6.27273388309465    6.52975980964935    9.45261677125407
H         6.10923349657476    7.01536825031591   10.40213134434739
C         6.10841229018355    7.24000843888181    8.27282312409378
H         5.81014594960030    8.27717207463931    8.30082474847689
C         6.32568090414339    6.61591443325310    7.06099441110768
H         6.19186827444321    7.16307652483287    6.13257915048073
C        10.49448385598333    5.41475209539826    5.09333126364565
H        11.01729590129371    4.47464845859105    5.19695134305923
C         9.74758207705404    6.07099078695885    6.11080787626690
H         9.53670637138713    5.68338846717490    7.09742120025467
C         9.44378255313726    7.37311205521110    5.66874803656737
H         8.97568812835641    8.14745197998488    6.25801974510394
C        10.04920478428787    7.55248577502237    4.39075772350613
H        10.11105726983232    8.49190124812774    3.85929424221999
C        10.70661173732162    6.35721542267793    4.04294455451566
H        11.35605479148252    6.21060043947090    3.19106173749047
P         6.90983264422159    7.32239730595647    3.37179350077204
P         4.99477894767919    8.32533842950868    3.56242499948824
P         5.91362944634609    8.00688949719487    1.57301927536929
P         6.81357343464915    9.45176826075965    2.98173524149282

