34
CSD_code = BUKYEM | q = 0 | S = 0 | Stoichiometry = C14H17O2Re | MND = 9
Re       -0.32940856134446   10.34260373996443    4.47568101248423
O        -3.17307570070921   11.51290476833176    4.47888165349412
O         0.45587895552200   12.00263827786143    2.00761555250649
C         1.39435866090597    8.77201124176063    4.72381809924028
C         0.55008978647290    8.26123712201224    3.70968730606329
C        -0.76095330447961    8.02575451917909    4.28988503224481
C        -0.69487300375527    8.38002014742259    5.66520503834342
C         0.62942280630910    8.83170386873253    5.92701505158194
C         2.87839659669566    8.94508430489150    4.58908946885112
H         3.12609879342383    9.52571220043194    3.69999740019877
H         3.36292812509609    7.96974251211657    4.49776300320266
H         3.30706263568583    9.45131246442828    5.45303623461415
C         0.97910665680506    7.80233887154478    2.35419320334511
H         0.17832711543007    7.92788344615805    1.62823939565151
H         1.24338458630574    6.74261411780092    2.39138079368833
H         1.84730378222589    8.35957120840072    2.00871564464084
C        -1.86539399166007    7.26388179863291    3.63016124064956
H        -1.93433676320074    7.51370533099539    2.57345958186247
H        -2.82303004178857    7.48261920038438    4.09760070843724
H        -1.67717400273908    6.19084652895457    3.71697343657328
C        -1.76217078348149    8.09555365642422    6.67900443897848
H        -2.73912569427927    8.41535196856394    6.31779034710871
H        -1.56749992618585    8.60658806900214    7.62035119044652
H        -1.81184011258077    7.02205792962466    6.87818790117271
C         1.02419164336596    9.61061263424748    7.15244558383515
H         0.62261559860103    9.18577204165364    8.07300188778246
H         2.10790781743959    9.70097591606920    7.24685673938307
C         0.37229614249774   10.92190824657611    6.79750286701991
H        -0.54256178323908   11.17861593697032    7.32202101349195
C         0.91388943222298   11.81363671668271    5.89921054286342
H         0.51809044931807   12.82066764906778    5.84714038185655
H         1.94742058777121   11.70410619297627    5.58830983699206
C        -2.08509849408401   11.12536455574219    4.45662601725801
C         0.12847199143266   11.42150281639454    2.94995239413693

