27
CSD_code = BUKYEN | q = 0 | S = 0 | Stoichiometry = C11H8Br2ClHgN3O | MND = 3
C        -0.48681179286429    0.49401717845774   13.69465261247838
H        -0.56903489710520   -0.58280503904659   13.73247430128984
C        -0.36473419654770    1.25379790929107   14.85171186720957
H        -0.34743718199209    0.79409172714785   15.83018865742988
C        -0.28700517714483    3.14566385887026   13.59089105227111
H        -0.20758295919068    4.22274965670530   13.51779050615978
C        -0.40990578050414    2.37309849440637   12.43574366003079
C        -0.43480865493764    3.03845822597815   11.08609575957773
C        -0.58752617594616    2.34201148655443    8.70989792004432
C        -0.55335571728059    3.61433522994409    8.14325946524367
H        -0.48332141511094    4.48090541369786    8.77922061274872
C        -0.60951702719391    3.76054273129571    6.77042383504624
H        -0.58358309618208    4.74490977867552    6.33100685463224
C        -0.69918136652390    2.64095519690711    5.95766903511307
C        -0.73317961726897    1.36881402874176    6.51037037847164
H        -0.80228091539858    0.50325653456061    5.87087681383146
C        -0.67779955643447    1.22333120683507    7.88158256705340
H        -0.70445101399950    0.23486933866898    8.31706747488746
N        -0.50797779449546    1.04816478394621   12.49659836511046
N        -0.26348691051145    2.58279986728496   14.79556307186879
N        -0.53534706239948    2.13019608244379   10.08717115075205
H        -0.57854140219804    1.16387260102884   10.39594392244565
Hg       -0.01903586091271    3.96490978266501   16.92708009843218
Cl       -0.76851699718269    2.82700066925505    4.24252845368553
Br       -0.10168359011249    2.07123946588663   18.46340834492440
Br        0.13493234248295    6.16229044803530   15.90845939045767
O        -0.36922618304267    4.24342334176006   10.97552382879896

