56
CSD_code = BUKYUC | q = 0 | S = 0 | Stoichiometry = C16H32NO3P3W | MND = 6
W         4.45477768183285    4.37465542742041    2.93034490658614
P         5.71885134750330    2.35779358255974    2.33572931204355
P         3.91852033580718    6.71669765248767    3.42197130020402
P         4.21385675020124    3.70727153117260    5.28873106380557
N         2.86871753520428    3.66089836247668    2.56706522678970
O         1.79078040928217    3.18981198288143    2.34668613616549
C         4.44551801954336    4.86649501748346    1.02152734213389
O         4.23248645255362    5.05461363277489   -0.09853617909612
O         6.29186731562369    5.26548117530547    3.65938425241391
C         7.46877564140617    5.34097020029984    3.10276924694805
C         7.64222792136697    5.47400054010309    1.71157464940801
H         6.75521769493515    5.52245458789956    1.08792280655493
C         8.90074540670686    5.55780394784783    1.15418395621448
H         9.00253835003974    5.66163257999001    0.08133662701112
C        10.03292720270810    5.51079783796548    1.95245697726047
H        11.01660495903977    5.57067767556326    1.51058747204059
C         9.88552023680838    5.39445064462731    3.32584441597082
H        10.76199148733804    5.36446009580943    3.95982417788524
C         8.63339768268016    5.31643876148731    3.89687389438812
H         8.52176315506677    5.22794475599748    4.97012805810745
C         6.50342876290251    2.35129544978803    0.67858166151498
H         7.24901786740296    3.14362681860080    0.63204581733500
H         5.73874849038331    2.53950804911323   -0.07382303302994
H         6.98059247201694    1.39048639570194    0.48312521850388
C         7.16438112113559    1.86532056673706    3.35658286392970
H         6.85991823424473    1.70584627085364    4.38954723173039
H         7.89302421965420    2.67605039473150    3.33162169348508
H         7.61811098555482    0.95536116546165    2.96369401425707
C         4.76261507413108    0.79746105036125    2.22573150394138
H         5.38717206898320   -0.01474988077872    1.85428428021862
H         3.93165311923434    0.96538951132516    1.54125657661772
H         4.35618143151738    0.53259286494358    3.19870054199065
C         4.49665011678915    7.55478130014581    4.95252486823423
H         4.30440281942860    8.62579131874753    4.88488412490497
H         5.56799489764144    7.38081245049099    5.03776823810260
H         3.99939099804718    7.15612907780752    5.83414503423091
C         4.70233704581029    7.82706171652796    2.19398488294978
H         4.32345522903135    7.58869193086839    1.20119373710029
H         5.77862708931833    7.65859080715440    2.21118984861349
H         4.49232075828582    8.87266808591782    2.42295069196017
C         2.17477100380170    7.27851684174901    3.31683084393567
H         1.58351663170861    6.80038316672126    4.09539515396317
H         1.78027591997583    6.96581452838693    2.35113291357822
H         2.09914047155427    8.36129035707494    3.41204501206194
C         5.45330828243484    4.16786851003769    6.55665862232270
H         5.12447984338869    3.87057470581884    7.55271682351678
H         5.61638802024300    5.24235305016171    6.52150660458186
H         6.39514048422683    3.67705345669692    6.31623175981420
C         3.96394749060323    1.93168317669978    5.70644721431876
H         4.85627325928906    1.35341077863978    5.47460283244001
H         3.13269791309824    1.55573269322389    5.11114081991902
H         3.72934794239157    1.81775404006957    6.76496997373953
C         2.65803607434356    4.34125400075175    6.03326111887250
H         2.53237468308941    3.98571856521288    7.05615540287690
H         1.83048028610673    3.98615956197940    5.41912453665452
H         2.65031330648762    5.42886723016783    6.02198492798629

