72
CSD_code = BULPED | q = 0 | S = 0 | Stoichiometry = C40H28AuClN2 | MND = 4
Au        0.01968153261595    3.89343253038861    3.65881436845533
Cl       -0.59898274388751    6.13704164741686    3.59098422935984
N        -0.99275904362089    3.88113903912345    5.56498966232265
N        -2.20020814688093    2.77293009385105    3.37315126649586
C         0.66492332488972    1.98835980735129    3.78235516179303
C         1.38517154650788    1.56462196577660    2.72890988243872
C         1.65005945917606    2.58942494274808    1.72600992054574
C         1.09189065779104    3.79062733582335    1.97308574653764
C         0.16581697653024    1.13760120180294    4.85279795207908
C         0.49757004161091    1.38175144123922    6.18654617212332
C        -0.06465262638886    0.63554798894269    7.20289284984599
C        -0.97646467711370   -0.36605215597981    6.91038340806023
C        -1.29952472263767   -0.63285900137642    5.59026797518039
C        -0.73267445660433    0.10677892016869    4.57112652245942
C         1.85389224691640    0.17812351843047    2.57767181919726
C         1.65445931771937   -0.50230087748047    1.37882195289861
C         2.08222468998928   -1.80862996569486    1.23571585300950
C         2.71490535599255   -2.45439564052043    2.28481325638976
C         2.91273249176437   -1.78707080171488    3.48195068322250
C         2.48469316044635   -0.48103822088083    3.62873829482840
C         2.48591964061763    2.31351577320326    0.54517077002657
C         2.05229336049886    2.63990362184263   -0.73629575771968
C         2.85050684355822    2.37727414495211   -1.83363157012449
C         4.09197398405501    1.78643951022992   -1.66697829777967
C         4.53147243749494    1.45917722038882   -0.39532990877466
C         3.73468473934072    1.71811595100553    0.70387097940344
C         1.26750861401982    4.95832669061433    1.11880678104791
C         2.54855357414527    5.42975450772334    0.83039462064657
C         2.72175381070144    6.52851043863477    0.01187179249401
C         1.62287760840359    7.17504553539411   -0.52911334249129
C         0.34681358920261    6.71662931818477   -0.24540267331660
C         0.16790629883850    5.62098528947795    0.57550240630608
C        -0.47930435629616    4.51995294787521    6.59216950950720
C        -1.00588941383509    4.42380745069170    7.88039372533700
C        -2.09051745936780    3.60791752552992    8.09251577175425
C        -2.67089126292793    2.93826248283521    7.00376002053933
C        -3.79630525020530    2.07761412066735    7.14694853662275
C        -4.33687673550190    1.45165609811514    6.07589036644949
C        -3.81475362634609    1.66080104564719    4.76868121046762
C        -4.36408255976774    1.06000389112216    3.62402406327440
C        -3.81539260480743    1.32576299784817    2.39269257221958
C        -2.72877887705549    2.20328088623097    2.31989160618916
C        -2.69993068820032    2.51037389328997    4.58552978987253
C        -2.09435588265751    3.13233402715352    5.72878323962615
H         1.20956169508069    2.16332846820207    6.41585343519263
H         0.20576422147716    0.83683590485968    8.23008300715314
H        -1.42600518385987   -0.94068379779875    7.70673521142015
H        -2.00022140223312   -1.42140238724071    5.35460890263685
H        -0.98466834203036   -0.09961011416906    3.54020796362867
H         1.15390206169180   -0.00531279323072    0.56046529299936
H         1.92231411586866   -2.32534212957612    0.30024666352529
H         3.05278002937950   -3.47397653955256    2.16972139788363
H         3.40571561344467   -2.28576074696415    4.30413914008568
H         2.64866350339079    0.04218201511653    4.55956948761772
H         1.08250943884996    3.09750633787919   -0.86728478136407
H         2.50284051135125    2.63469941853722   -2.82377849232559
H         4.71542888420967    1.58292950359616   -2.52536868336875
H         5.50037533155526    1.00070679191431   -0.25884475134058
H         4.08425978996257    1.47040644551567    1.69576725501747
H         3.40370546956968    4.92733759300697    1.25913743597462
H         3.71929431614899    6.88577038703860   -0.20094365563767
H         1.76012197054068    8.03800891486790   -1.16458262516270
H        -0.51374165219917    7.22161965818002   -0.66004814065504
H        -0.82762219826603    5.26904273962660    0.80390216313107
H         0.38331359783923    5.13702483123215    6.38727501008176
H        -0.54808886486939    4.97282577843015    8.68761483366168
H        -2.50866842223034    3.47841271456637    9.08034290785951
H        -4.20300541258090    1.93554337075497    8.13732718827833
H        -5.18350513608155    0.79014822798258    6.18792883643168
H        -5.21372684512014    0.39993857288052    3.72696644854600
H        -4.21219009004774    0.88022659316396    1.49408598336970
H        -2.27384716927661    2.45361510314518    1.37119937612582

