45
CSD_code = BULVOU | q = 0 | S = 0 | Stoichiometry = C18H12F6N8Pt | MND = 4
Pt       10.87418859544247    2.17837790839529    5.02129870087432
N         9.74101600944099    2.19458629924552    6.71177189754890
N        12.28944917221619    2.50709809514149    6.37741648569050
N        13.58969432287953    2.73951122370267    6.40102215854336
N        12.68939814479705    3.64114940383626    8.24047884087854
C         8.50207942388092    1.72657350401028    6.88082273546602
C         7.77947880561843    2.05182609152143    8.02731557490536
H         6.77112346518900    1.68470379724453    8.13117444399407
C         8.35551177018527    2.82983597247469    9.01680728031699
H         7.79365837060907    3.10004518189925    9.89735825134365
C         9.67878355674272    3.21625663161444    8.88251066675711
H        10.20853231435590    3.76462571350763    9.64307249338051
C        10.34394504515847    2.86932433202627    7.71619556267473
C        11.75313578692217    3.07057397256511    7.48655417674488
C        13.79912703934958    3.41436263981150    7.52727761320660
C        15.15016387621305    3.86540099397218    7.95234442280897
C         7.94509707550586    0.81943169872170    5.84384822047892
H         7.37016793298456    1.39772337054523    5.11894223484449
H         7.29523851619309    0.07516755273848    6.29526944535459
H         8.75962780725037    0.32659439684695    5.30629193621123
F        15.23771610971742    5.20054410905724    8.06021969053416
F        15.50865561491347    3.36442316818941    9.14530945175825
F        16.09825045655042    3.48972818098457    7.08099007401801
N        12.00736411051488    2.19457434303449    3.33082962549936
N         9.45893525179937    2.50709769168364    3.66517769114481
N         8.15868906631256    2.73949618946009    3.64156080357285
N         9.05899367491457    3.64115495003166    1.80211709967951
C        13.24629429374990    1.72654399854413    3.16178159889725
C        13.96890211017136    2.05178615337374    2.01529036569807
H        14.97725278013482    1.68464998082112    1.91143483565183
C        13.39287941684484    2.82980052913675    1.02579689903373
H        13.95473387100166    3.09999815409460    0.14524305214548
C        12.06961351386024    3.21624193001857    1.16009155812764
H        11.53987383136840    3.76461768682514    0.39952822001268
C        11.40444526463532    2.86932353314963    2.32640726950952
C         9.99525451022345    3.07058198422656    2.55604539758961
C         7.94926113815136    3.41435723282217    2.51531017522295
C         6.59821629096866    3.86537475101815    2.09024671259864
C        13.80325269465699    0.81938923534034    4.19875759803897
H        14.37814062606103    1.39767947797123    4.92369748513469
H        14.45314393625770    0.07514613585008    3.74734961054455
H        12.98870841476633    0.32652647545439    4.73627045110161
F         6.51051667307413    5.20054352443348    1.98277117118940
F         6.23989837997649    3.36471968661351    0.89709884851474
F         5.65009093843631    3.48933211804415    2.96140117275365

