75
CSD_code = BULYUD | q = 0 | S = 0 | Stoichiometry = C18H32CdN18O6 | MND = 6
Cd        6.21159234033142    5.89393281748337    4.86743956484439
N         4.88794828104828   10.18972257488726    8.62338441569224
C         4.92862937288059    9.14550440481418    7.78614080317068
N         3.77525314609823    8.81482035950860    7.17041183506676
H         3.05371650704407    9.51536191497877    7.18405519469521
H         3.85500107319513    8.24340967022530    6.33273609507562
N         5.98893002607620    8.36012391456200    7.53676433186635
C         7.07383553473703    8.71214523241389    8.23249236048973
C         7.14995278119193    9.78330882295131    9.13279321512048
C         5.96978219338789   10.53125179310234    9.31187152687141
N         5.89879323536866   11.57291675019343   10.15835926232889
H         5.04765753205027   12.10130803441909   10.21509518545898
H         6.72818429166739   11.86710395268827   10.63976164560405
N         8.42133621339899    9.86363867510282    9.64724487396493
C         9.06846221254759    8.89165481348979    9.08640335053014
H        10.09987655540928    8.66657598959104    9.27540581894698
N         8.31559274804964    8.14486136224663    8.21590097859572
C         8.75028485330679    7.01458890466300    7.43890271062813
H         7.98068463041439    6.23875348325879    7.47152774658616
H         9.66457958849704    6.62704617026183    7.89519594140107
C         9.03216921020511    7.38436957126914    5.98149202241551
H         9.68947793461238    8.27060129454686    5.96009999467406
H         9.56230358638087    6.55252460833025    5.51222647007380
N         7.80404273736092    7.63277137273906    5.23048052121298
H         7.23983595037461    8.30432105375817    5.75081721751699
C         8.07811731262250    8.13015884599159    3.88420252302709
H         8.95663908091306    8.79200630821573    3.87154736944000
H         7.21214653722848    8.69679284288994    3.53013984671659
C         8.29420303664175    6.95172045076172    2.92686033795337
H         8.61046189913890    7.33499782962478    1.94728794516533
H         9.07278251770272    6.29265594672010    3.31607450110213
N         7.04727060244123    6.20414605472214    2.85064947057679
H         6.37212669173210    6.74756596337677    2.31341198752229
H         7.16104846728408    5.28649334915744    2.41600065703112
N         8.26242020319828    3.66477670181131    5.96033086247258
O         8.07483049785321    4.42311708675537    4.97113455083375
O         7.64185585320984    3.89732332855028    6.99296712491947
O         9.04295807110858    2.74757815442811    5.85827080099818
N         7.53517593313511    1.59842004598617    1.11176396870973
C         7.49449411213898    2.64274378892528    1.94887834120725
N         8.64791968985845    2.97357551351344    2.56444366176216
H         9.36946322656498    2.27303524072174    2.55082720636033
H         8.56824018398409    3.54505212218029    3.40206736328248
N         6.43416090469495    3.42808127383119    2.19825037409933
C         5.34923238368865    3.07591296147956    1.50262621002559
C         5.27312588626412    2.00464285339606    0.60244697896519
C         6.45332101082041    1.25673742059977    0.42339154464684
N         6.52431105763619    0.21496889110296   -0.42296367404981
H         7.37546167913370   -0.31340402873539   -0.47966025444765
H         5.69490038672645   -0.07933470673734   -0.90426008525975
N         4.00171919137553    1.92418335527637    0.08807104709282
C         3.35456767150141    2.89619119609939    0.64883736289346
H         2.32313164215695    3.12119490122035    0.45986329893595
N         4.10743793768781    3.64312185670686    1.51921259010693
C         3.67271439882070    4.77343807151921    2.29611924096327
H         4.44231157080436    5.54927434396716    2.26346024015781
H         2.75843016262874    5.16095055873211    1.83977957728835
C         3.39077880314939    4.40373439722666    3.75353819564136
H         2.73340254777595    3.51755385194585    3.77495970829778
H         2.86069438746253    5.23563451699406    4.22276077425029
N         4.61886890533911    4.15526303615402    4.50458875874340
H         5.18293965486483    3.48351301985164    3.98436802073445
C         4.34468436540264    3.65812784711078    5.85094247346498
H         3.46606782676850    2.99640989504379    5.86366994552891
H         5.21056643272347    3.09143723155216    6.20513282115548
C         4.12873905918072    4.83676589677415    6.80806703350893
H         3.81231400469095    4.45371294425439    7.78767252041671
H         3.35032777345016    5.49592454231130    6.41867726518878
N         5.37581126085386    5.58410933813985    6.88426074773705
H         6.05078851279038    5.04063684075168    7.42164576511415
H         5.26217272785316    6.50186503527999    7.31874073019821
N         4.16040420810214    8.12303817189782    3.77429288747412
O         4.34858624157508    7.36520433567475    4.76376173138814
O         4.78063544463999    7.89020262130635    2.74151285901750
O         3.37971550704609    9.04013041345415    3.87627170880748

