71
CSD_code = BUNHAT | q = 0 | S = 0 | Stoichiometry = C20H42Cl2N2P2PdS2 | MND = 4
Pd        5.02726624530965    5.54088159348137    3.07163787734192
Cl        5.54286063962170    7.38521275784195    4.25976445763333
Cl        3.48186415118910    5.24596619728210    4.68627971486395
S         7.04698797762504    6.21558365972169    1.79109644943069
S         3.90331832145551    3.36621673712503    2.29244525270446
P         5.72527864987637    5.78293599438644    0.40113701314912
P         5.37686609658693    3.56436290147817    1.03086683279231
N         6.44966707724197    6.06935006863927   -1.09377781800759
N         6.83573193819789    3.03743601076721    1.65026945438098
C         4.18943047625811    6.87960380966179    0.27893986558357
C         2.92497724275337    6.37351015428488    0.96617604927777
C         1.80261899415387    7.39075909662601    0.76723223442148
C         2.21399034666251    8.73146852482100    1.36651839549051
C         3.48037027168626    9.24349503857891    0.68803994337774
C         4.60781966466934    8.22983048902560    0.85887866372458
C         7.88092214968975    6.31909532849491   -1.20003338850706
C         8.21242797383513    7.80689074630277   -1.16971039059808
C         5.76389557802403    5.72490126004247   -2.32498267677056
C         5.64662007456122    6.89842284163744   -3.29221674842127
C         5.07282836498536    2.50106287556894   -0.46919350046493
C         3.69147743961028    2.83780844867149   -1.01584952178776
C         3.37786832308584    1.96496342475182   -2.22675270131469
C         3.43180307035655    0.49148722796326   -1.83275390993202
C         4.79434253345387    0.14246399449702   -1.24069593304206
C         5.10804258751745    1.03805048686097   -0.04467779243878
C         8.03102585575093    3.15044606727479    0.82364140659619
C         8.84178475839774    1.86105670568808    0.78265503897930
C         7.05635020452394    2.99133185559508    3.10027333519055
C         6.73968821421555    1.61430708338231    3.66792334514038
H         4.00021446382345    6.98738979811100   -0.79638383947926
H         2.62771053695293    5.39824114645768    0.56849196653099
H         3.09162040217026    6.27887453708463    2.06286275179685
H         0.89816464494077    7.02398742106236    1.25380520334170
H         1.58962438507612    7.50866051774933   -0.29948369380127
H         2.40880647686447    8.59963154176990    2.43354360432439
H         1.40752744668721    9.45743508500236    1.25341720113456
H         3.28785557304416    9.41183902707361   -0.37587885952824
H         3.78440052797525   10.19331100345880    1.12941762197173
H         4.82014113585999    8.11351434073689    1.93265221196807
H         5.51680325620105    8.58494961023868    0.36330319557691
H         8.24418270169965    5.86399209397289   -2.12614138656282
H         8.39349345872782    5.84356224260243   -0.35886964817750
H         9.28288863768292    7.94178919353892   -1.30025734894787
H         7.92822640286603    8.22380994287815   -0.20720890014096
H         7.69186215012941    8.34731556233236   -1.95461431612942
H         4.76275787704397    5.37229063013188   -2.06315479242741
H         6.28615098855607    4.89745634621900   -2.82485856550542
H         5.01515204065029    6.61596987310634   -4.13117784065362
H         6.62160337215574    7.18178768640836   -3.67823383257796
H         5.20537798287819    7.75894892433577   -2.79524646723682
H         5.83489557022052    2.69828191359689   -1.23133371723427
H         2.95127147735216    2.65195667083636   -0.23304613724628
H         3.63218550126295    3.89816108267165   -1.28222081013494
H         4.10539507207242    2.16113252232475   -3.01896451856305
H         2.38723345097180    2.21165974546075   -2.61245526529228
H         3.23495589488815   -0.13383322804584   -2.70519383975053
H         2.65534748938967    0.29000928448517   -1.09227018235454
H         4.80619326287343   -0.90264485038603   -0.92708759012940
H         5.56716937243761    0.27224631916109   -2.00310871081000
H         4.36065953960074    0.88505523235483    0.73825938635517
H         6.08340864636884    0.78376966018789    0.37217891490872
H         8.66693166291637    3.96049051158723    1.20085331565535
H         7.71145011019729    3.41766655675919   -0.18960065854530
H         9.70220538499946    1.99939717760797    0.13266185971880
H         8.24738562835390    1.03578260991898    0.39910324563340
H         9.20092808915622    1.60111375776718    1.77426239553062
H         6.42062391069441    3.74500634123957    3.63256977183978
H         8.09895967587022    3.25879318299245    3.29312044874928
H         6.93085229160328    1.61129304020261    4.73781058734927
H         7.35021693596491    0.84706450875870    3.19736412314922
H         5.69144134079627    1.37584005362160    3.50418218385939

