94
CSD_code = BUNKAW | q = 0 | S = 0 | Stoichiometry = C40H51O2Ta | MND = 5
Ta        6.28703850515367    3.92542578815215    1.33120059546890
O         5.68593553733869    5.07388749706315    0.06301848703062
O         6.85807163843272    2.97859489926455    2.80030477736685
C         7.27270094949909    2.64920777055252    4.03465742984554
C         6.34092817570788    2.50072237214081    5.09879374854465
C         6.82167442546720    2.44391660246817    6.39909600432252
C         8.17112679598139    2.45365173071172    6.67901686871618
C         9.07007840175019    2.41891217084739    5.63516685387965
C         8.65682846002833    2.48124235910521    4.31271106238976
C         9.70603327143613    2.34598336983330    3.21113974439152
C         9.23328690808775    1.29830418594267    2.19435342157872
C        11.06332193709865    1.84639012493505    3.73002955683742
C         9.95132785565771    3.71329913070771    2.56345389987417
C         4.83577954470899    2.36182333259128    4.87120834879736
C         4.23188014182248    3.71113763453761    4.46608364578370
C         4.58837308242604    1.27748568126690    3.81326002676041
C         4.08098370302237    1.90217903952397    6.12922943840131
C         5.74245823859340    6.30164158298034   -0.43282066007108
C         6.00871662909253    7.36002969197212    0.47010672376265
C         6.26642993261790    8.61841369735089   -0.04795961217083
C         6.23024440704967    8.84600129480461   -1.41085148775829
C         5.85195362430538    7.83474048102101   -2.27214380751515
C         5.57609653232475    6.55506221947899   -1.81187704938324
C         5.06045602458576    5.46625899098192   -2.74792229948950
C         4.79636032895572    5.99305463453048   -4.16337530742380
C         6.07177872831082    4.31907382554643   -2.85609754826392
C         3.73051178321710    4.93116072630393   -2.19555961457404
C         5.86871350952811    7.11610531377252    1.97131812759208
C         6.65866162313820    5.89989108861826    2.45457391637621
C         6.33485786887539    8.32333134049720    2.80299090127346
C         4.36541487284792    6.91751189260036    2.23963354870985
C         4.37053101528038    2.77601164349700    0.93098341516482
C         3.09232628982411    3.24862807956674    1.20251797478674
C         1.95895534287207    2.55853592654531    0.80025907341947
C         2.08287588236455    1.36786711814259    0.10701600851096
C         3.34468579661172    0.87725625517999   -0.17820342674929
C         4.46863129231411    1.57880523835753    0.22966687008015
C         7.96181224059217    3.52429656577077   -0.13221266819182
C         8.75345827245582    4.60239063504971   -0.50669416884078
C         9.75322931968465    4.46596262998650   -1.45691489816574
C         9.97684703126622    3.23842298408341   -2.05607435069281
C         9.18930432000144    2.15657141736952   -1.70572618047172
C         8.19082010758324    2.30595753271713   -0.75482895387738
H         6.13438522982292    2.39481866286879    7.22540407072830
H         8.51797707304413    2.44215709507159    7.70124040788836
H        10.11799179302528    2.34810889241954    5.86880915358480
H         8.22612531775467    1.50052966677944    1.84679849585617
H         9.89848125855876    1.27988353518965    1.33358791031776
H         9.23958855168556    0.31400842553603    2.66032362810800
H        10.95686416799396    0.92028125414004    4.29006963781814
H        11.70930986632553    1.65260787913752    2.87581500054604
H        11.55883133426432    2.58658775959399    4.35333915692047
H        10.62246311838521    3.61623090849301    1.71214242536201
H         9.02296359192310    4.15878899638864    2.22449692122663
H        10.40596911939307    4.38431722703476    3.29076689681467
H         4.67317478763254    4.08385212010133    3.54743779427963
H         3.15803898740560    3.60860656020902    4.32277310076898
H         4.40709113198270    4.43903133911689    5.25738884300589
H         3.53638355933527    1.24844389766628    3.53705749323916
H         5.16941041379998    1.44641044925317    2.91291255993027
H         4.86677133586690    0.30612499963332    4.21881417007947
H         3.04886693969634    1.69224491072795    5.85518875265431
H         4.51080009896065    0.99164047124846    6.53958035516227
H         4.06662285310124    2.67058342029568    6.89840787604126
H         6.50015496111637    9.44218308682414    0.60584005243162
H         6.45971847710497    9.82713869311190   -1.79930914456994
H         5.77487272698949    8.06232484208519   -3.32172525393894
H         4.36682638174305    5.19448581299638   -4.76506025172392
H         4.09059683451434    6.82032841791867   -4.15096865408739
H         5.71794230600594    6.31295824277863   -4.64384506103558
H         5.74416894800595    3.60415846674015   -3.60843294503033
H         7.05154793536831    4.69798287450658   -3.14067374997182
H         6.16465363093817    3.79748987493528   -1.90801805071476
H         3.00163291447232    5.73652053185752   -2.12458236884613
H         3.33395217305090    4.16102744933289   -2.85400685627159
H         3.86354137549821    4.49490456308425   -1.20897578328945
H         6.49567914866529    5.78065420925942    3.53047767910951
H         7.72648966125783    6.10418338229280    2.31338693858127
H         7.37458007312646    8.56487409972834    2.59293320605446
H         5.71918046444118    9.19879910351289    2.60965531060144
H         6.24985758493868    8.08434953999612    3.86154902081595
H         3.81821421132845    7.81992276792263    1.97162366264987
H         3.97601118458642    6.09750809212064    1.63986419846199
H         4.19039497369060    6.70491868859235    3.29281088086835
H         2.96196938328437    4.17921811383487    1.74082293074633
H         0.97883309888575    2.95451281380576    1.02667648701176
H         1.20316263215465    0.82678357752331   -0.20967897064041
H         3.45554668899231   -0.05154304086850   -0.71997704342004
H         5.44550783476897    1.16722411128551   -0.00215738182302
H         8.58718615036263    5.57941333891822   -0.06623144536938
H        10.35455292267859    5.32131927582583   -1.73107145221723
H        10.75567233355691    3.12747456153880   -2.79649677238786
H         9.34851878168682    1.19499003084047   -2.17286349460414
H         7.58542332894383    1.44228951035450   -0.50474877372514

