53
CSD_code = BUNLUS | q = 0 | S = 0 | Stoichiometry = C21H22Cl2MnN5O2 | MND = 6
Mn        4.74872925677319    2.38020167803531    3.53098554141330
Cl        3.33979915612102    3.97031665275071    3.08530265213097
O        -1.94960925970978   -2.61902115837760    7.52666942723262
N        -1.99938186608936   -1.41642596750180    7.32818143996538
C         0.96793967126681   -1.08511872805025    5.14242336030635
H         1.72094980640202   -1.71927176222075    4.69675206758639
Cl        6.51311753571485    3.29613070275478    2.61599773856022
O        -2.84503387322432   -0.67217723987881    7.79520538047790
N         4.39158297989012    1.57239494608886    1.67137027565780
C        -0.00540547683955   -1.65075665621954    5.94026454289965
H        -0.02379868926091   -2.70999731412172    6.14527299411734
N         3.20729175070190    1.43376101911657    4.81760986716717
C        -0.99068495142371   -0.83758935612111    6.49092951638357
N         5.45203844723342    0.75643157530207    3.75263094756186
C        -1.01308157506929    0.52883759061976    6.22656477086754
H        -1.80141893481313    1.13156864490763    6.65031322016527
N         5.08509694152306    3.22191069706998    5.32667323391689
C        -0.03369711255652    1.07957920778943    5.42642988059689
H        -0.06072762907370    2.13529985157577    5.20356558774287
C         0.97706962359689    0.28565170696755    4.88575091211618
C         2.06995268692062    0.89550657486782    4.04656382770757
H         2.46928015880068    0.14355690982431    3.35940947624637
H         1.67183132000451    1.72683991315234    3.45621817892489
C         3.92700585970803    0.39812281928646    5.57943178119010
H         3.23786639752156   -0.35170441058475    5.98335182972341
H         4.43013331985490    0.88410062571468    6.41722359709703
C         4.98662610104741   -0.24362885036059    4.68055170936998
H         5.80813514528842   -0.64270166718679    5.29377101702396
H         4.55117938637057   -1.09004306171678    4.12223462385113
C         6.09919057334382    0.19916249434808    2.58400277733800
H         6.24256151330879   -0.88645241122566    2.64572828086933
H         7.08042377163326    0.68558940492130    2.46434983249267
C         5.25068996495479    0.57855536024178    1.39907117658815
C         5.33328983856994   -0.02195312424122    0.15552500196127
H         6.04639741407995   -0.81428710444234   -0.01029814236239
C         4.50283891144119    0.42339109101586   -0.86105120830726
H         4.55072410340230   -0.01836855637694   -1.84438950316181
C         3.61733043204117    1.45235909676683   -0.58197350220573
H         2.95442450621573    1.83854869088957   -1.33931902735267
C         3.59539615705312    1.99611619890687    0.68949027446800
H         2.92553963719561    2.80977238008573    0.93488070812297
C         2.80482024105944    2.50433474714160    5.73010787987710
H         2.26592516729552    2.11381115128801    6.60469644680189
H         2.15334083898775    3.19757841451543    5.18901794546062
C         4.03203457232144    3.26427310387569    6.16011334384080
C         4.05464767489708    3.97330827592763    7.34952339950583
H         3.17833728371182    3.98218823351816    7.97927845915897
C         5.19928460669402    4.66851415882359    7.70842279297125
H         5.23456615339789    5.23675818346873    8.62474361314649
C         6.29215150300503    4.60546053901830    6.85936607215925
H         7.21115868966868    5.11908323112221    7.09084490308821
C         6.19297789568883    3.87446584395736    5.68935675821508
H         7.02546237337193    3.81771565296963    4.99906231931712

