55
CSD_code = BUNMED | q = 0 | S = 0 | Stoichiometry = C22H25Cl2MnN4O | MND = 6
Mn       -6.02396277579210    0.69535328370609    4.09335058217695
Cl       -6.83133283631982   -1.21916124948116    4.81262804893020
Cl       -7.66614418256105    1.20290439336798    2.73496500029962
N        -5.16043928654946   -0.39979465834498    2.60211782724526
C        -5.57718532219072   -0.63217983665178    1.35590138003571
H        -6.42916748189279   -0.05441888224880    1.02241603123766
C        -4.98357241040731   -1.56429012345139    0.52525573651653
H        -5.36947454110853   -1.71442027944512   -0.47034342531762
C        -3.90565277097768   -2.29904696678739    0.99391912731382
H        -3.42428499342684   -3.04015550495674    0.37445248410085
C        -3.46527482779119   -2.06161611983956    2.28683358923526
H        -2.63590831229436   -2.61055388875822    2.70543140500495
C        -4.11810450881067   -1.11483795178472    3.05491140722379
N        -6.92731904548512    1.75971981115644    5.51375153503917
C        -7.55901962992689    1.26397338573418    6.58402311943518
H        -7.43499308510561    0.20231962671598    6.75822432970094
C        -8.34854356459634    2.02921296819175    7.42177006619019
H        -8.84073199041638    1.56533190448638    8.26143643299180
C        -8.49834315723074    3.38175545112241    7.15945877322612
H        -9.11538590540101    4.00941131099026    7.78340971790428
C        -7.82342040204265    3.90894568898589    6.06813143096721
H        -7.89642423025540    4.95780440494872    5.82340693430233
C        -7.05312846190083    3.07807430086573    5.27379865908342
C        -6.31212228894217    3.61246199332750    4.07655288650854
H        -6.99277083037463    3.59223706622285    3.21995510637849
H        -5.98660181712817    4.64801221440446    4.25114188901751
N        -5.18232676507736    2.72910054772009    3.79365349225567
C        -4.17327564816414    2.88574390692742    4.85513403400809
H        -4.69067916160750    3.15671719697382    5.77717182633515
H        -3.46495786479170    3.68581473801166    4.61231740864983
C        -3.45704037185801    1.54985747481167    5.07158027139040
H        -2.58455696198781    1.47380479120116    4.39950822573136
H        -3.08186004739156    1.48777833761999    6.10449677360442
N        -4.38748138538627    0.49030103832903    4.77591467310148
C        -3.74829032977748   -0.77267784242819    4.47341605726784
H        -4.17858024315858   -1.54618239631932    5.12988707631637
H        -2.65985258485416   -0.75137997875508    4.61138614621344
C        -4.62836543644671    2.94220921646500    2.44259573113789
H        -5.42981353656345    2.70435221028792    1.73609837337663
H        -3.82055987111203    2.21709983065948    2.30483099090875
C        -4.11040704258028    4.33478912995296    2.18789081062920
C        -2.76757007175302    4.64669249183586    2.38846257982909
H        -2.07441596394739    3.87256198691220    2.68707168769844
C        -2.29702514483820    5.92644291406376    2.18811155769770
H        -1.25763821158970    6.16953777730716    2.34177427196555
C        -3.16033100314959    6.94062822248440    1.77014759656731
O        -2.59915986836410    8.16749465540424    1.60539500182329
C        -3.40891592387485    9.22509221332595    1.15046807845935
H        -2.75171462932885   10.09038847675923    1.08276216331091
H        -4.22004530472392    9.44196084158575    1.85296831938740
H        -3.82948590613964    9.01252649899135    0.16255891453129
C        -4.49837252146499    6.63446923404454    1.54568654996723
H        -5.19117135165886    7.38683458394133    1.20352656315058
C        -4.95710143023900    5.34497375678814    1.75325571976217
H        -5.99569675924551    5.12352580261923    1.55642903017846

