61
CSD_code = BUNPOR | q = 0 | S = 0 | Stoichiometry = C28H28P2PtS2 | MND = 4
Pt       -1.41126073526211    0.41196900569123    4.03218047423566
P        -0.92225002719375    1.88530490645822    5.69693594930879
S        -0.88054119529024   -1.23404763045725    5.59420607002767
C        -0.88948956763534   -0.34517187685147    7.19902398724715
H        -1.92619516427226   -0.19232325271028    7.50893828426315
H        -0.40664146471591   -1.01952000161635    7.90794063288248
C        -2.40989785835097    2.58986273602038    6.46182444050207
C        -3.63185028209188    2.07572353735862    6.04415141610551
H        -3.63440442434645    1.29355794285467    5.28570881591290
C        -0.15164528141830    0.98073338987326    7.10472303013437
H         0.90141346508101    0.80149263430834    6.87142286806863
H        -0.22390745802494    1.56499063921754    8.02924554639840
C        -2.37029169867466    3.56457600394770    7.45354502357790
H        -1.41895492261343    3.95189251509922    7.79306340527960
C         0.17972786098836    3.29012928858493    5.37298933541804
C        -0.29734434666691    4.58636558092822    5.20810887196530
H        -1.34115453192891    4.80133940079959    5.38747145202400
C        -4.76847499623506    3.53256155538582    7.56448965031024
H        -5.68607079582777    3.90721915861873    7.99343122168441
C        -4.80997254827750    2.54509004887875    6.59425506852118
H        -5.75784225214657    2.14191739481398    6.27073069030064
C        -3.55103996013290    4.03642085448265    7.99655104838053
H        -3.52378595561966    4.79811848030085    8.76222220737000
C         1.52087303238702    3.01860957556180    5.10799546895786
H         1.88827294235785    2.00568091183136    5.20181578989056
C         1.89573531904716    5.32110974418236    4.56166841842185
H         2.56050904828193    6.11083076708690    4.24501170403339
C         2.37444192881438    4.02947092273743    4.71213554353140
H         3.41307354095772    3.81157703239881    4.51215524906353
C         0.56128434825987    5.59531927170376    4.80998385212242
H         0.18478426785995    6.60059290983871    4.68724749553812
P        -1.90167249530474    1.88540152570147    2.36768803758617
S        -1.94332820130034   -1.23432772211809    2.47097112229059
C        -1.93566252494569   -0.34561315905992    0.86607100766681
H        -0.89918410547485   -0.19280251328375    0.55536114104417
H        -2.41903969037192   -1.02000327755865    0.15753099806089
C        -0.41475815120051    2.59017786600179    1.60158401250134
C         0.80789953197351    2.07783736742332    2.01934639115364
H         0.81162103451204    1.29642582411995    2.77852280353708
C        -2.67345223163028    0.98030375020097    0.96088018071462
H        -3.72632916125100    0.80115190248264    1.19511371405667
H        -2.60199979156822    1.56443856683214    0.03626275235449
C        -0.45590224563109    3.56385911665278    0.60890178346129
H        -1.40784893547913    3.94985819408085    0.26960512659937
C        -3.00319037261958    3.29051652571564    2.69213661843476
C        -2.52551911478997    4.58659592935237    2.85650316207101
H        -1.48171456973279    4.80106044623306    2.67667522627982
C         1.94227181007695    3.53456664288604    0.49718949753778
H         2.85928244707531    3.90993937403209    0.06759288204328
C         1.98529404397204    2.54807030341917    1.46837209682646
H         2.93377726678104    2.14643169232972    1.79204442984972
C         0.72409596397922    4.03655147693942    0.06503589467158
H         0.69563381602531    4.79746080329170   -0.70136825602463
C        -4.34429298448557    3.01961595922283    2.95782586983493
H        -4.71214963233331    2.00685516039996    2.86437171778481
C        -4.71801244947213    5.32243051754892    3.50357426452823
H        -5.38233540938943    6.11252595593075    3.82018445148709
C        -5.19729164231849    4.03094830267991    3.35369304294954
H        -6.23595154107421    3.81355921587060    3.55396384469355
C        -3.38355459025467    5.59601343613775    3.25465848641160
H        -3.00658636050039    6.60115736849400    3.37683468810864

