65
CSD_code = BUNQEI | q = 0 | S = 0 | Stoichiometry = C28H28I2N4O2Pd | MND = 4
Pd        8.53844267709834    7.73755687146715    3.54705715323719
I         6.78367051439534    9.68884904815143    3.66842451201066
I         9.96276398932156    5.52569311780981    3.23584787315091
O         6.55592234765598    6.22431932367817    2.55078387543942
C         8.86546952567822   10.79748434650184    6.40470468158537
C         7.24251977935312    5.38576300927597    5.82474581938439
H         7.11980536215050    4.67600742806941    6.64445847044203
H         7.80243315297926    4.89340468153713    5.01968527313125
C         5.87340654468102    5.82936565934121    5.26824802068021
H         5.09557450111896    5.78265787644401    6.03222332843882
H         5.95354291511956    6.85552925088336    4.88220145413253
C        10.68659748063487    9.78506956493737    5.14757506502300
C         9.55973851793157    9.66492504240871    5.96194621064940
C         7.65858023450413   10.68852461143589    7.28590228902838
H         7.05645227029047   11.58837498225804    7.19843228832136
H         7.94976708766559   10.57229910814362    8.33017405865097
H         7.03828981248352    9.84029527019326    7.00545471610260
C        11.49485267727132    8.59704918765310    4.71577091374805
H        12.54983596410705    8.86113175065180    4.66703469938842
H        11.19831285015871    8.27125306904858    3.71008634537414
H        11.37975467791988    7.75687169073187    5.40062205822476
N         5.48716439016220    4.98957152626366    4.16460023477725
O         4.34762617150235    3.35292738244955    5.30811596265004
C         4.73292806754714    3.24932168039410    2.90081728883120
C        10.39857242194812   12.19149249043258    5.14766151211372
C        11.08203328058731   11.05683444201217    4.74605789039722
H        11.94861410781617   11.15128910362115    4.10579183490281
C         9.30335982618317   12.04305627840478    5.98887095396523
H         8.76281071494774   12.92043359932797    6.31123087771501
C         4.78823708753307    3.79513149998933    4.27842094026640
C         5.42530153694095    4.12258778666221    2.05336503131441
C         5.91899755351132    5.25039759447659    2.87130323126147
C         5.54718090730110    3.86067111943592    0.70468256565748
H         6.08110265300138    4.53409083158325    0.05243311923556
C         4.14822077681888    2.09902321948628    2.41515141667908
H         3.61579562514270    1.43088544743939    3.07376172315916
C        10.81381353184186   13.55442621266255    4.68789184545598
H        10.04476104798454   13.97789719314469    4.04225247955437
H        11.74879007475957   13.51433804328395    4.13420684519373
H        10.93735133605200   14.22232839297858    5.53883159920823
C         4.27351839796285    1.83405471996250    1.05475091701695
H         3.82918949014169    0.93915234205239    0.64572416938286
C         4.96052363719913    2.69775413987852    0.21609930338480
H         5.04274386977636    2.46391638445259   -0.83472129046422
C         8.48048780687358    7.49834148834587    5.50645371460594
N         8.84766073737314    8.18934805267913    1.59317926689001
N         9.07359751716405    8.38012261355726    6.34108663386650
N         8.00741540317042    6.51119376369410    6.29305881394121
C         8.31087906686395    6.76605157714867    7.60581332029185
H         8.03406439202121    6.09704986738207    8.39397322188980
C         8.49150566487234    7.47503547735192    0.53277698338835
H         7.92402851723852    6.57355598964063    0.72817381581321
C         9.54978023423010    9.30513847093783    1.40436700279820
H         9.80963727589784    9.88673939406644    2.29060030137261
C         9.56002065584066    9.00638944824267   -0.97324538768871
C         9.92907820762899    9.74047957068742    0.14971192641623
H        10.50302320209161   10.64907594920721    0.05025732747041
C         8.81871875298114    7.84951742076548   -0.75651152153078
H         8.50230751317784    7.23837473882163   -1.58789577813755
C         8.98004272668215    7.93929144743616    7.63673587070405
H         9.40582832428210    8.48308623600335    8.45403402350263
C         9.92155164654322    9.44848257176944   -2.35249564004546
H        10.74637823450712   10.15633284069900   -2.33210467209598
H         9.06382618607671    9.93613922342558   -2.81689099597799
H        10.19559854536732    8.59584753740895   -2.97025778540465

