56
CSD_code = BUNYAL | q = 0 | S = 0 | Stoichiometry = C25H20N3OS6Sc | MND = 7
Sc        0.84904157549587    4.86979323086215   10.88865730387801
S         1.13607012141705    4.95395977706479    8.20783735907878
O         2.74124479490446    6.15127028290218   10.71867124330535
N         0.12497450534216    6.69226716885647    9.90352478875625
C         0.39384967773906    6.40286453116958    8.63792312628767
C         2.98509346118207    7.34662380918864   11.46485405440229
H         2.14760277694212    7.50216756452439   12.15328315308084
H         3.04902157413674    8.19307187931493   10.76528717334024
S        -0.04804811426302    7.64688507046474    7.48928481769662
N        -0.67921266264691    3.38972809044868   10.65278180843613
C        -0.62897739597352    8.62431764771338    8.81714533126550
C         4.33197802887933    7.12244968012147   12.16872536474875
H         4.17948382758528    6.77387362083183   13.18961459926066
H         4.91130092478519    8.04232476824644   12.20555637130465
S        -1.60364819829872    5.16383300135307   12.34542560763144
N         1.67194825289959    4.76929643565409   12.93112283093378
C         5.01223794989210    6.04004192960114   11.30968484254700
H         5.98366174138418    6.35462265655838   10.93601813188801
H         5.14338761651361    5.11864554495929   11.87625930279330
C        -1.18969689201915    9.88822731132703    8.78127347312505
H        -1.32175717340748   10.39915101512984    7.84106512677562
S        -3.08173791790383    2.69580897613799   11.36192345657984
C         4.01837398623557    5.81875181345424   10.16522784532521
H         4.22784681881584    6.49427864754377    9.32431594235443
H         3.98195134144756    4.78819031308133    9.80521397313045
C        -1.57375735529344   10.46701836700808    9.97692221071553
H        -2.01581374880133   11.45129269730897    9.97181899155760
S         2.63230638052899    2.88244726598629   11.37178810983035
C        -1.40327154850101    9.79440384590952   11.18362405800652
H        -1.71797745480921   10.26468597596865   12.10265987553349
S         3.45101251429502    3.39674393256695   14.24435968155196
C        -0.84379971400657    8.53406472251357   11.22407198116034
H        -0.72791607807916    7.99067835776566   12.15141067554708
C        -0.45055100524356    7.93484311976163   10.03043795004162
C        -1.69806917072258    3.76683304947308   11.41863260366053
C        -2.21635532562853    1.67870687732206   10.23044076033809
C        -2.63054487053351    0.50588376140724    9.62516976483019
H        -3.60958330309593    0.10253294203437    9.82903171613142
C        -1.75578056489356   -0.12515600118928    8.75945657652148
H        -2.05893637532249   -1.04127581559730    8.27635878461184
C        -0.49278489022452    0.40232752712471    8.50305966734213
H         0.16938184805750   -0.11200754307568    7.82366327068653
C        -0.07312832398328    1.57183654578572    9.10298543790299
H         0.90684523184853    1.99706509416557    8.91460615906460
C        -0.94413977652736    2.21960759079907    9.97607184308560
C         2.49956010845740    3.74126377986749   12.81358334414019
C         2.66779006539024    4.73651315432971   15.04972798292593
C         2.86278575138327    5.20786864161742   16.33544982021811
H         3.57532809757965    4.73041344761272   16.98868998158401
C         2.11937142551631    6.29691801029786   16.75227680143493
H         2.25425982231879    6.67948012593613   17.75203257418028
C         1.19501050071341    6.89884618133854   15.90307251723662
H         0.61932882029927    7.74060412817340   16.25619198217012
C         0.99777516543269    6.43297445072718   14.61951741718203
H         0.26340319633634    6.87273845926003   13.95857529636829
C         1.74105995690229    5.34050254115811   14.17973513657905

