74
CSD_code = BUNYIS | q = 0 | S = 0 | Stoichiometry = C37H31FeNO2P2 | MND = 5
Fe        6.78442276621618   18.05138221514127   18.25274982514721
P         6.26705831452264   20.15527488324613   18.13128853961051
P         7.01160585354906   15.95377208535142   18.76137837283969
C         5.94738661858122   17.67834705413315   16.73858273360750
O         5.55358409308994   17.43659712580147   15.67616500642772
N         8.33159049426585   18.34867319452784   18.47229948713940
O         9.49812568308655   18.54800640146498   18.57933517515027
C         4.50160024409688   20.58289612702075   18.28359522308346
C         3.97252750574129   21.21759332220785   19.40043559284805
C         2.61159006377844   21.46325922640125   19.47374747442606
C         1.77501980450565   21.07446166640892   18.44175438002004
C         2.29858042044984   20.43210442940485   17.32964898308267
C         3.65480085683700   20.18347735181023   17.25150480846139
C         7.03064858425120   21.21820815280836   19.40948039436269
C         7.40696978265917   22.53835324345659   19.18515589844578
C         7.97246489763305   23.27641579017794   20.21062017832399
C         8.16391665116016   22.70873713990383   21.45919190680729
C         7.79155741047146   21.39305613025945   21.68606215510382
C         7.23145606533477   20.64884871688077   20.66513985457695
C         6.69391892067291   21.04782252339004   16.59184602204104
C         5.99838557306738   22.17941242609569   16.17110967707941
C         6.37594113119454   22.83018977477497   15.01061123607770
C         7.44700907930772   22.36365519503028   14.26514227097116
C         8.14188801624900   21.23929337081676   14.67944591606344
C         7.76484507824234   20.58230796855022   15.83661949599207
C         5.71766640293028   14.79613901914916   18.19577045361411
C         4.39757908753073   15.23827339802137   18.22410457695210
C         3.37548528595085   14.40252625331888   17.81515397268154
C         3.66335784716247   13.12225465428759   17.36892775667542
C         4.97493691485001   12.67836386443336   17.33905502313079
C         6.00286648801320   13.50824912589422   17.75187103182382
C         8.52184791236496   15.14319235245492   18.12016259533570
C         9.28841865838876   14.24682203475175   18.85764538041789
C        10.41747967749157   13.67989646435662   18.29202747030027
C        10.78446598644904   13.99739322458479   16.99488614132324
C        10.02093660566594   14.88747309037988   16.25564615934662
C         8.89657733768684   15.46115638808679   16.81747347121164
C         7.12875386234997   15.56004792762432   20.54061091365325
C         6.37294810167513   14.56919664287442   21.15634876366016
C         6.51470288491175   14.33904185914687   22.51461565459348
C         7.40551099323530   15.09017040210155   23.26233098326319
C         8.15745716520690   16.08287314101691   22.65243915448790
C         8.01633245954314   16.32049049273085   21.29911792240812
H         5.66839553215298   18.01118218895766   19.33534685917480
H         4.62241289506500   21.51826771857491   20.21061149879620
H         2.20382122386846   21.95968277902451   20.34249250594885
H         0.71412786760618   21.26819340720587   18.50353648158827
H         1.64644839489961   20.12421215764719   16.52528256256138
H         4.07244284979062   19.67993346024732   16.38912655712998
H         7.26741066566758   22.98756152437602   18.21222184296975
H         8.26816875771869   24.30003138636008   20.03121323468799
H         8.60855478771791   23.28991996465640   22.25378118914704
H         7.94379213101789   20.94631476888645   22.65795256249139
H         6.94287591469460   19.61627189070808   20.82160085886423
H         5.15995085887389   22.54450338489691   16.74941371718136
H         5.83136851642744   23.70546471728483   14.68629885494233
H         7.73634533433513   22.87463794841239   13.35857704894240
H         8.97534119963858   20.87286474625477   14.09810758925440
H         8.29314777618724   19.69475133794275   16.16205350462302
H         4.19216064100623   16.24492774434538   18.56391746870078
H         2.35310522071532   14.75120404463926   17.83813505735594
H         2.86575695374732   12.47163464010298   17.04123143988701
H         5.20083689487010   11.68103262349699   16.98983619533506
H         7.02478529423147   13.15610324002188   17.72508915409557
H         9.00431521725201   13.99496174243282   19.87020274965757
H        11.01418758318698   12.98794148600686   18.86879167870838
H        11.66889157305245   13.55446116587429   16.56097998729891
H        10.30771206441619   15.13742829082258   15.24464893945576
H         8.29594704712849   16.16981215981694   16.25855722002217
H         5.67538458649741   13.98013036498106   20.57727267032719
H         5.92523199189487   13.56835743255603   22.98991624608192
H         7.51189619065039   14.90564983649510   24.32128273918983
H         8.85119502755544   16.67180354630804   23.23493911713584
H         8.59257142733807   17.09935245027630   20.81628443578533

