77
CSD_code = BUPBIY | q = 0 | S = 0 | Stoichiometry = C32H35Cl3N4OSiZr | MND = 7
Zr       -1.17990601554794    2.13610764922143   10.17630801211791
Cl        0.26622953643132    4.02885711055281   10.30813471497698
Cl       -2.46057802476341    0.13502711416156   10.06230048517972
Cl       -3.18641270685320    3.50007785792285   10.31962265044721
Si        0.84608677049524    0.64551563533570   12.59459144443013
N         0.33412606079585    1.19773463017942    8.78698690755891
N         0.44741451981932    0.97701982422458   10.97650085515769
N        -0.79572537238521    0.30627274432595   13.25322794242835
N        -1.50088447097141    2.30344706689897   12.37827073325962
H        -2.24662948610170    2.99885767797095   12.49532345341449
C         0.83056313109249    1.44684820048360    7.50713656956406
C         0.27841614619509    0.76204533835551    6.42282525813911
H        -0.47517183127570    0.00953339017623    6.61352737612125
C         0.70308616921876    1.04030826457621    5.13789678621718
H         0.27784017956281    0.50103667922582    4.30336465986855
C         1.67119476599737    2.00738607577091    4.91541857725196
H         1.99840121014042    2.22473419146307    3.90955788759879
C         2.21293595596505    2.69846871896046    5.98793815178175
H         2.96057624731242    3.45922107729564    5.81688443487675
C         1.80126596431016    2.42515429546635    7.27842709120492
H         2.19875094376248    2.97869933518429    8.11827334714731
C         1.09943210306906    0.95800483317513    9.82729963857132
C         2.54793655058202    0.67438877067363    9.72832667324658
C         3.02135462074876   -0.31767110879249    8.87692521762669
H         2.32241523759853   -0.89425460947890    8.28899413788809
C         4.37960501682188   -0.56833998997181    8.79883109582995
H         4.74471379900533   -1.34464873878070    8.14301513556368
C         5.26969559857720    0.17732549517240    9.55400612141805
H         6.32989181362485   -0.01658721094946    9.48561614471922
C         4.80054898043107    1.17657168984348   10.39159232320327
H         5.49492947767005    1.76674467917414   10.97110009686941
C         3.44320216348626    1.42376948711713   10.48411605346728
H         3.06286787596305    2.21236303005859   11.11534865647847
C         1.89570443390302   -0.92300131483403   12.83684376204899
H         1.35821397461146   -1.81465194260759   12.52986682720595
H         2.19906250413215   -1.05589579623733   13.86818705096349
H         2.79625771822811   -0.85482784317472   12.23579266728920
C         1.49709657217933    2.15918940688301   13.56813534268021
H         1.19890259000245    3.08054641827251   13.07010493972454
H         2.58058989372395    2.15255998328888   13.63935272318753
H         1.10256097111221    2.19038109319801   14.57977450664199
C        -1.14102764079728   -0.95001771380043   13.79857236419554
C        -0.49566145251601   -1.41115179518739   14.93832870882364
H         0.25327353697190   -0.79225600609875   15.40899673570148
C        -0.82820346795629   -2.64501383378321   15.46737456477232
H        -0.32774996609161   -2.99867792647454   16.35678469579461
C        -1.80353776027380   -3.42104643122768   14.86382905128375
H        -2.06373997187522   -4.38201510522145   15.28151003154337
C        -2.44050630824338   -2.96315660463046   13.72217630690276
H        -3.19504826121599   -3.56855411201620   13.24326491774314
C        -2.11181620911626   -1.73243118837949   13.18392949678631
H        -2.58712082994728   -1.37573885248519   12.28175570049712
C        -1.74725710893174    1.23058636949000   13.07802435222045
C        -3.05463886943672    1.07060530583650   13.76139126039869
C        -3.13441454954356    0.81565755908188   15.12704590665130
H        -2.23021773798193    0.71178082903933   15.70793469321143
C        -4.36996224601588    0.71547781257694   15.73894274382570
H        -4.42740327688669    0.52374618786846   16.80006470964955
C        -5.52923676255694    0.85926437238248   14.99422741871093
H        -6.49217831820531    0.77324881967435   15.47530453061188
C        -5.45287938162183    1.11678809047329   13.63539349612034
H        -6.35436484345265    1.23210263190095   13.05351324544583
C        -4.22122150270551    1.23325622943568   13.01711207152056
H        -4.15826943517878    1.42312074958628   11.95218224853981
C        -2.87576064271412    2.11577227959232    7.42513217012375
H        -3.77549475056357    2.51117035114827    7.92074771910350
H        -2.85752943761186    1.02555163983491    7.51912411311408
C        -2.77919514411091    2.61616047227192    5.97502107470610
H        -2.39003802595997    1.83883229857181    5.32014924159854
H        -3.75576615668778    2.92131129233541    5.60541765178231
C        -1.79709285168724    3.79829089809180    6.05527739336404
H        -0.86498146251669    3.55595899589048    5.54576572111626
H        -2.20492155384435    4.70878864101762    5.62294297595737
C        -1.54823761990601    3.95324276814701    7.55819541984802
H        -0.53861493993599    4.29513301967743    7.80547676304411
H        -2.29226266042806    4.62231930410008    8.01756025207627
O        -1.71328397907491    2.63237344153822    8.08048379981281

