96
CSD_code = BUPBEU | q = 0 | S = 0 | Stoichiometry = C43H42Cl2N6Si2Zr | MND = 7
Zr       15.14651019478879    9.03620989582292    6.82130840394163
Si       15.62417296122971   11.82566003816162    5.80866565128298
Si       15.80163425226999    7.42882798162223    3.96428146722794
Cl       17.48510952311943    9.11263052369919    7.41125458029045
Cl       12.94726693554682    9.00348694730942    5.89016141550141
N        14.86311008104153    9.77231879196648    8.85912068048498
N        14.76104048542309   11.15906775797701    7.13536507384301
N        15.92753650491879   10.24187823542356    5.06089884599742
N        17.09577333105638    8.66603076934560    3.85322508272953
N        15.65349701067543    7.27916762722730    5.65418075095669
N        14.60628376104015    7.07220625851613    7.59521817276708
C        14.96287333017666    9.38152405550514   10.19152644961008
C        15.66027503239212    8.20496891511527   10.48292640134777
H        16.16475443806613    7.68350379130576    9.67438123912162
C        15.71082955242457    7.73553722601334   11.77994073438727
H        16.25040284596458    6.82587844737814   11.99917125302754
C        15.07338476586630    8.42422407053955   12.80072152545077
H        15.11069568240369    8.05024032914354   13.81278498365839
C        14.38773316700744    9.59328599037235   12.51724620649436
H        13.88974575740740   10.13350002032172   13.30938072022895
C        14.32837479583716   10.07476678465415   11.22337621447598
H        13.77957084259023   10.97775969431287   10.99545435130289
C        15.04848676745112   11.00534354970973    8.41471869856712
C        15.60290059636633   12.10317754153773    9.23513197133544
C        15.02793623517035   13.36857070413804    9.18686867261507
H        14.15784966297937   13.52462877604684    8.56577599088396
C        15.56532276533845   14.40033991762825    9.93457753989404
H        15.11094345962123   15.37989544633759    9.90525838693150
C        16.68692874542239   14.17831545570550   10.71725442377702
H        17.10622021463752   14.98580505659658   11.29926673255940
C        17.27465512468465   12.92393655865609   10.74813247088299
H        18.15671746193864   12.75527003044371   11.34754621881717
C        16.73558331685254   11.88346570480293   10.01377054504461
H        17.19817505716375   10.90667512394599   10.01733737433742
C        14.41725502327855   12.76147010988413    4.66484528656538
H        14.87572556943703   12.98506728776673    3.70805438879779
H        14.11310779987328   13.70017896657546    5.11260696957538
H        13.52402839504064   12.16998753967505    4.48678106427306
C        17.13664920103028   12.88444015271771    6.31059762306216
H        17.64895572087728   13.30200869228131    5.45117561442455
H        17.85087238587132   12.29049191041781    6.87462475145876
H        16.81966443303928   13.70810275532080    6.94277984318020
C        16.96056177554953    9.89681980606619    4.36953074803187
C        18.06291255710464   10.84584757202158    4.05716654086245
C        17.93161493446999   11.72545113050768    2.99092718105243
H        17.02486021832106   11.71944731794876    2.40352455187221
C        18.95987939975531   12.60027930826042    2.68712658712163
H        18.85770291769357   13.28217667597669    1.85575563295490
C        20.11788713646316   12.59920377320818    3.44636690721788
H        20.92071254762600   13.28029534228417    3.20565904665273
C        20.24384894562544   11.72802421791788    4.51595017478994
H        21.14334431638004   11.73232834732984    5.11293160498884
C        19.22132204837880   10.84892258799064    4.82459036419005
H        19.30105659326458   10.17721727143951    5.66616467928594
C        18.32464838294045    8.33245746702254    3.22796108249337
C        18.53001213247146    8.59653043067789    1.88221680927234
H        17.74897141378531    9.07434996964770    1.31021350108485
C        19.73086581250987    8.24848659053787    1.28933882443375
H        19.89207697567606    8.45749200181722    0.24225254040038
C        20.72233579359830    7.63393027641456    2.03494059183392
H        21.65864710587059    7.36504279003769    1.56950359382325
C        20.51162501334058    7.36342101979749    3.37706399769625
H        21.28357503246170    6.88284731203747    3.95918418284139
C        19.31402486377186    7.70941137793588    3.97567543057173
H        19.12888314224159    7.51474402015633    5.02187858213407
C        14.29395714208656    8.13798088043858    3.02614175277491
H        14.10967120065415    9.16989929795677    3.32199869376479
H        13.39327509160493    7.57761306724850    3.26085511546437
H        14.43510388863892    8.10910574912365    1.94895491417892
C        16.49733670536246    5.91033659382063    3.04411870216402
H        17.36215881966722    5.48943433262188    3.54577396759424
H        16.80126314179959    6.17413260162215    2.03752235697518
H        15.74242941906338    5.13543996794863    2.97278066252757
C        14.83575762693263    6.55343484737235    6.40821927757732
C        14.16444517137763    5.33504536602875    5.90492280462519
C        14.89164140737416    4.21488007307458    5.52227155468584
H        15.96727510897023    4.22268098992169    5.61704736736860
C        14.23236615143991    3.09770840593461    5.04082382206631
H        14.79730495757271    2.22364748862418    4.75186650624095
C        12.85182290336538    3.10016656798780    4.92955468480824
H        12.34035426124391    2.22692847890893    4.55246452150599
C        12.12766249405400    4.22175297091177    5.30050714718927
H        11.05209076675783    4.22555145145036    5.20872126232824
C        12.77706642740889    5.33902404749435    5.79329419638813
H        12.22764521026578    6.22686378159124    6.07321414767293
C        13.76147661042210    6.49936043234511    8.54968013691635
C        13.91244625230559    5.18631915282812    8.99153260753962
H        14.68028820496174    4.56343777591718    8.55537480022606
C        13.09732451316867    4.69975847480649    9.99680857031655
H        13.22336784320171    3.68287721584013   10.33892971557545
C        12.12907049156460    5.50809388157999   10.56677756476576
H        11.49987550881587    5.12423177132442   11.35557761566191
C        11.96974785680174    6.81171985668719   10.12186781877723
H        11.21064616153330    7.44168643708357   10.56118500713523
C        12.77740941053466    7.31112064294418    9.11961521085765
H        12.65829700103693    8.32619535980604    8.74977956872606

