32
CSD_code = BUPCIY | q = -1 | S = 0 | Stoichiometry = C11H12N2O6V(1-) | MND = 6
V        -1.47865535825390   -0.08198695493617    0.88540814243708
O         0.55400311412094   -1.64436370724681    3.82994044267315
O        -0.92295722728195   -0.55381391117510    2.58126470778250
O        -3.24040701230004   -1.55089616707129    1.03711151256400
O        -3.80389594525618   -3.53806034050701    0.19120069531094
O        -0.16142007429058    0.41353745818148    0.23954153324163
O        -2.38092353223845    1.14726888103356    1.09584159880526
N        -2.14236388321233   -0.58471502919344   -0.94163288044735
N        -0.64245634050577   -2.19703494736860    0.59632521055388
C        -3.22218505471573   -0.01967132860810   -1.45520923238597
C        -3.85191945430178   -0.51615626653479   -2.58584864295100
C        -3.32728336491962   -1.64330802685402   -3.19435456391576
C        -2.18865823142692   -2.22062061374073   -2.65868707826800
C        -1.61997262802790   -1.66705380129548   -1.51796384445885
C        -0.37782031639607   -2.19771099082983   -0.83595324914692
C         0.50814144443972   -2.09087359399508    1.46544421592285
C         0.02263100563718   -1.37667817234848    2.76299134935244
C        -1.57215238440471   -3.22273688063441    1.03449689993576
C        -3.02915520563997   -2.73950422139594    0.71655059923275
C         0.14691627548280   -3.52278696877916   -1.40618000865113
H        -3.58740133844156    0.84523730834539   -0.91530231909665
H        -4.74104218146509   -0.03860052418620   -2.96707315851753
H        -3.79867354088097   -2.07528608138561   -4.06563817798578
H        -1.76473148231749   -3.10259451825700   -3.11100839322656
H         0.38910074489717   -1.42170157287534   -0.99475187924769
H         1.25538419822127   -1.42614762848664    1.01773071934884
H         0.97419391887573   -3.05991003554203    1.71156823016001
H        -1.51263336154418   -3.31543467552063    2.12376509428962
H        -1.37982588860265   -4.21080313455737    0.59299916920417
H         0.96204420585184   -3.88446616238543   -0.78225269196481
H        -0.63095909976891   -4.28180796567527   -1.44009944129175
H         0.53077799866575   -3.36871942617578   -2.41272455925862

