49
CSD_code = BUPKOO | q = 0 | S = 0 | Stoichiometry = C16H28N4Pt | MND = 4
Pt        7.26945315695976   -0.67229446895391    9.88034140664818
H         8.39742555111856   -0.40385896876096    8.88327804430074
C         8.05722137487940   -2.59475556964614    9.98765396020005
H         8.41290897156428   -2.97270307932313    9.02259014013310
H         7.31821791157283   -3.32807305599249   10.33905530194951
H         8.92143615775515   -2.66630134699719   10.66323075444025
C         6.28495305715490    1.11787599566809    9.51567002174319
N         6.45703060051300    2.45581059310313    9.47606661618677
C         5.30234142393892    3.06769244080662    9.05204381715178
H         5.20414162883084    4.12539586204554    8.93097551990261
C         4.38173453165766    2.09964891705223    8.84235237762699
H         3.36480884255275    2.16039157973816    8.51127871936240
N         5.00454491490932    0.91058110018559    9.11675542901872
C         5.68864942164468   -1.04499906972868   11.12341313504866
N         5.40875632089750   -1.23733939853585   12.42893027530025
C         4.04790417179066   -1.22342386161077   12.62523857189757
H         3.58706200518810   -1.38007078500265   13.57724610204037
C         3.46553135015145   -0.98329826885963   11.42939233696482
H         2.43324091260660   -0.89237822333344   11.15799531778796
N         4.48561577456153   -0.88991500480947   10.51750188035531
C         4.42475139467671   -0.41033140346173    9.16246451448023
H         5.03014332921623   -1.08062433936509    8.52566585821775
H         3.38796957469430   -0.37783742141379    8.81476165999544
C         7.72939554604826    3.12243941295279    9.75766555117959
C         8.40379392942307    2.42233679883607   10.93903849989077
H         7.80073039504301    2.53377744762072   11.83756830208643
H         9.38140829907290    2.86010211928734   11.11813929785174
H         8.53293466221742    1.35516159470753   10.72100393644182
C         8.60653112391543    3.01135922559489    8.50778472318215
H         8.78829443336141    1.96235904842133    8.28725881129504
H         9.55882782473469    3.50702302871924    8.67169360392537
H         8.11443178865532    3.47073143336913    7.65260097608583
C         7.48981940092854    4.59302290097742   10.10797693513210
H         7.16593724723038    5.16429404337420    9.24104561827819
H         8.42024105164150    5.02805726228314   10.46289017878903
H         6.74609219844641    4.68853825162018   10.89702688098585
C         6.41671080544240   -1.45826249102157   13.46704386095132
C         7.64005274213270   -0.58648220666840   13.17093741824111
H         7.98058638155573   -0.73116716623616   12.13339565849899
H         8.45235624764104   -0.85153322962931   13.84158433600805
H         7.39651249271663    0.46381699762936   13.31685403739172
C         6.80115377539575   -2.94039853958480   13.46308718189234
H         5.91877408124892   -3.56420585227562   13.59755863227653
H         7.49921828450583   -3.14772373420118   14.26953301815762
H         7.27167764484809   -3.19737778939578   12.51933089070228
C         5.85083812755352   -1.07312369464055   14.83737095690803
H         5.41055788994373   -0.07787817416130   14.81031304282493
H         6.65884962624498   -1.06765466689547   15.56430839080916
H         5.10223162122726   -1.78490424349088   15.17828749945867

