95
CSD_code = BUPKIH | q = 0 | S = 0 | Stoichiometry = C36H54AsMoN3 | MND = 4
Mo        3.73918830898551   10.73414103911117    4.02718452933215
As        5.82754319305501   11.33438339941868    4.62076358148880
N         3.09531559560349   12.28260038137586    3.02700923770715
N         2.82810109684301   10.58091887908963    5.74071443374444
N         4.07192501153208    9.07934309694574    3.04280189013814
C         1.88200352592766    8.34521919484976    2.23500220651615
H         1.70750590757373    7.83690665836317    3.17314853613585
C         3.66020434823605   13.46578257175516    2.35858257516815
C         0.82317197470124   11.65628941021015    2.39889947909404
H         1.21806744747031   11.08799427678831    1.56897668212551
C         6.28654899811581    8.65921237184769    2.00581049976655
H         5.95669709335474    8.83562523948699    0.98475009786657
H         7.12002105716743    7.96193427543146    1.97750168119460
H         6.62960351869520    9.59983511429138    2.44110912179019
C         0.93698917447247    8.25632297726528    1.22426847201553
C         5.14087250513439    8.08316771267612    2.85653334381217
C         3.07340480857616    9.05044127895891    2.05055039995596
C         1.70509090753998   12.32809891572933    3.24594313863045
C         3.28925555846961    9.67543881988775    0.81609937197864
H         4.21834984565774   10.21240921465234    0.66069862482600
C         4.81916634934006   13.01527725076155    1.45911759326966
H         4.43892177970599   12.40673045657024    0.64057602280746
H         5.53918984643152   12.43280122777610    2.03685058854675
H         5.32346468411965   13.88091016444734    1.03623215226188
C         4.61526166449191    6.81054341266526    2.16949627285861
H         3.77619637155373    6.39396978288352    2.72402038957542
H         5.40843557181029    6.06712475465516    2.13401282003576
H         4.28807562214832    7.01343781610715    1.15140634431857
C         2.97637671594840   11.05025319762487    7.12318193400772
C        -1.47058338731864   11.01682175812577    1.63286420495162
H        -1.05025167792033   10.98687735648788    0.63014660401873
H        -2.44615295497096   11.49694230504025    1.59532183406512
H        -1.60788087526591    9.98871840004713    1.96616276957030
C         1.92984246678255    9.50621473200769    5.57959126120798
C         2.34834061235085    9.60862522732345   -0.20015108668033
C         0.57960678821203    9.71199062628654    5.28860875309741
H         0.21161132390825   10.72014607174765    5.16611627779035
C        -0.55166605404641   11.74242358899734    2.56881934288972
C         1.16133935457637   13.10777805938189    4.27665715279983
H         1.82757467089591   13.65991904703683    4.92763467863210
C        -0.20628305576207   13.19813566882015    4.46800668460006
C         0.17058104653552    7.35339177600088    5.36900756758087
H        -0.51395260171242    6.51921744210828    5.29490177043335
C         2.59017788418822   10.32015694240103   -1.49892372676572
H         2.35533090026337   11.38097506607266   -1.39592331617885
H         1.96489839590448    9.91127410462767   -2.28911942224202
H         3.63367581418268   10.23823540922960   -1.79720222642053
C         3.66319628402339   12.42134164644078    7.13454772198550
H         3.24681609919658   13.05965610561808    6.35754247211746
H         4.73192390931800   12.31602920410846    6.95552865997769
H         3.51912064969291   12.89998248290306    8.10053108517636
C         2.37540216837202    8.19227074321813    5.76626222208622
H         3.41919875447922    8.03029008078250    6.01062911408472
C         1.60231942913264   11.20052981773356    7.80111559061771
H         0.98489417533027   11.90525985523489    7.24733090253476
H         1.73266633375975   11.57377086600291    8.81433286894480
H         1.08137187116750   10.24623341318363    7.85313230564128
C         5.69474704621436    7.67139058631266    4.22635494191291
H         4.94741691615358    7.10303713627150    4.77609489764117
H         5.97338450667364    8.55549166763384    4.80230295282140
H         6.57364948786850    7.04400352315406    4.09864808074040
C         1.51062192623148    7.11471755190561    5.65388276911999
C        -1.05712496887068   12.51130884519529    3.60652233929710
H        -2.12694862585013   12.59269479181632    3.74425471351008
C         3.83729167060620   10.07117012518229    7.94203995083371
H         3.30666803547093    9.13690679039828    8.11410979959446
H         4.08397027561182   10.50908852532488    8.90605340017968
H         4.76394222921682    9.86853653891969    7.40065543699527
C        -0.29944548348912    7.43317929891117    1.42859820080138
H        -0.08355453405261    6.38578117324206    1.21218643658539
H        -1.10027948721034    7.75422052857286    0.76594606853323
H        -0.63597573885843    7.49734327115491    2.46081186039709
C         4.18799428624743   14.48597998967849    3.38196200256335
H         4.87084732060599   13.99061180970130    4.07476094525784
H         3.36906410540380   14.93017287500568    3.94279373807180
H         4.72194450794561   15.28472973201704    2.87347799709971
C         2.01536436672704    5.71142497492651    5.81843219699502
H         2.28320612939378    5.29227379788380    4.84693736670618
H         1.25063547420640    5.07370708909693    6.25652717978620
H         2.90023119164387    5.68694257199580    6.45072427202381
C         2.61964929243499   14.15897270193472    1.46210208311014
H         2.19563774929225   13.45233814404535    0.75023100241227
H         3.09839588718975   14.96325448641410    0.90810153477448
H         1.80681145133666   14.58198065112297    2.04924051097786
C         1.17735012226494    8.88975116745474    0.01195111042536
H         0.44591334289793    8.81758319236157   -0.78128076505897
C        -0.30277205693858    8.64669437406619    5.18880664992060
C        -0.77734847625014   14.02646047410973    5.58137737447932
H        -1.42572941165249   14.80469011456073    5.17976200098115
H         0.01092344576149   14.49843898035499    6.16353318196114
H        -1.37812727830327   13.40694470488626    6.24761449418635
C        -1.76216611578991    8.89788176637740    4.94936939955929
H        -2.20769490337840    8.10463731411210    4.35141963072667
H        -1.91317391164962    9.85192371251716    4.45069108334446
H        -2.28998658303560    8.92841433278230    5.90388907325544

