73
CSD_code = BUPLOP | q = 0 | S = 0 | Stoichiometry = C29H34F3IrN2O4 | MND = 6
Ir       13.51578179504018    7.17008609064955   16.69438696599713
N        15.35451276254670    7.98616995230612   17.20594083677104
N        12.17158892346600    5.90764891483125   15.73330100636380
O        17.54008147884769    8.02724795972107   16.73998859031695
O        11.88376349083609    4.47656010744795   14.04156413661363
O        13.49459917683546    5.88432620911038   18.65849935486036
O        12.29075415416414    7.73509072229100   18.56643173313817
F        13.19048351569786    5.86852925952063   21.34915309859624
F        11.99764732051223    7.65780044013358   21.24336587663125
F        11.14794983334801    5.76188207528213   20.66006174932151
C        14.65589334273996    6.37277817585315   15.34917096178316
C        16.02388944635991    6.65644773076721   15.36598966093295
C        16.86387164974787    6.05414226904209   14.41995848994036
C        16.28023183614021    5.18923958198228   13.49788723631671
H        16.92110672074241    4.72890782203965   12.75848662240987
C        14.92472617393748    4.86581478005141   13.48071148517040
C        14.10275370715620    5.46625672594195   14.44061299781377
C        16.32325736518223    7.56615879548173   16.44670261357341
C        17.40920044540937    8.87539530744800   17.87922278406402
H        17.79614145181241    9.86412124245921   17.61938434341096
H        18.00877222989962    8.45534692361538   18.69144078257068
C        15.89262416590786    8.89527128762797   18.21260589439749
C        15.27365768202789   10.28192859094307   18.03288800001908
H        15.51191272738334   10.68529652799497   17.05115278530396
H        15.64539527477089   10.95874269412499   18.79813233400105
H        14.19312499844353   10.20293618901074   18.12158664046301
C        15.61850745617116    8.37572952348427   19.62408223183460
H        15.88515579619190    7.32401687107600   19.70569200358773
H        14.56378571108305    8.48578040667422   19.85926894496758
H        16.19283820276573    8.94831168834992   20.34894711604129
C        12.69924697259572    5.28333962768105   14.72152846579718
C        10.58599949640516    4.61808343435783   14.61918678165484
H        10.16569901409855    3.62347569713521   14.77419720361167
H         9.95899086705959    5.17747880813424   13.91657438385314
C        10.81778276512022    5.39355923318156   15.93906706202643
C         9.81408138248881    6.51324374644958   16.17521065441062
H         8.85660976570176    6.09918441331912   16.48115531570098
H         9.67839420750526    7.09960374873791   15.27242578836324
H        10.18758773729200    7.16304044174850   16.96331316905107
C        10.82781688214432    4.43138763186767   17.13312033025505
H        11.03179683081553    4.97177314099240   18.05185794212346
H        11.59831498497107    3.67361573439523   17.00468380190816
H         9.85931618771423    3.94537194575408   17.22777199598942
C        18.33176860134726    6.33117500161836   14.40276453638826
H        18.77593028268814    6.05283654948158   15.35674663703828
H        18.51259790588443    7.39562426604898   14.26369279974064
H        18.82530200962621    5.77950267759975   13.60698893682038
C        14.36770900966233    3.90553766020611   12.48238757711197
H        13.49299873179112    4.33607289765115   12.00047945867306
H        14.04406294716060    2.99414672752270   12.98320866724364
H        15.10801557924786    3.64758035092275   11.72946324769512
C        12.65002128771016    8.45193572937765   14.05319876739245
C        13.49272030506998    8.04011398156848   13.02143310361020
H        14.55855322338969    8.01490357119221   13.19273680786584
C        12.99147854630110    7.65180414427746   11.78962533879023
C        11.62078664384120    7.69709396492057   11.57551870033408
H        11.21699700579617    7.38832168171468   10.62099636923668
C        10.75911118880798    8.15870395623742   12.56309239357667
C        11.28409231321429    8.53778522497558   13.78740381076310
H        10.62959264173311    8.92462065180911   14.55473858270818
C        13.19049846284147    8.78687032675384   15.38569833462775
H        12.47811673610187    9.40208011737747   15.94281459317757
H        14.12850502747250    9.33464900530337   15.27047824185584
C        13.92131415146057    7.21291681902325   10.69743288132911
H        13.44022439372375    6.48992665185174   10.04238461960946
H        14.82216857287587    6.77138160744296   11.11668909095893
H        14.21418275728089    8.07092321537679   10.09138613526637
C         9.28486999170725    8.24177223870049   12.29052029340437
H         9.09049112765894    8.93361184042694   11.47176963443409
H         8.74252666094848    8.58768475621762   13.16725467141113
H         8.89272272530960    7.26775930913562   11.99819611790111
C        12.73465798847971    6.73023188430527   19.14079043806793
C        12.27033725176650    6.50601072195030   20.61139904100757

