74
CSD_code = BUPMEG | q = 0 | S = 0 | Stoichiometry = C33H28Br2NO8PPd | MND = 4
Pd        9.28155756702105    3.18455642590893   -0.65457689335403
Br        8.95985933382509    4.92308019177133    0.96573359957005
N         7.52416906448767    3.58643079572628   -1.81644575854076
C         6.72896022616393    4.60515762926742   -1.58293033062749
H         6.93202015528276    5.20103766199042   -0.69937933616405
C         5.64798450432815    4.94693364601315   -2.41175920970435
H         5.03894709338853    5.79778321286392   -2.15226863233701
C         5.39690462460820    4.19772832155312   -3.52652778957618
H         4.57870572009781    4.42786502428028   -4.19329306939553
C         6.23366790987032    3.09818672009094   -3.81387647321706
C         7.30190277165171    2.81810531632528   -2.91915313824501
C         8.15075165601803    1.71929516403356   -3.19941499497067
C         7.95436489080984    0.95753866811894   -4.32768680219624
H         8.62409888128791    0.13370549204126   -4.53369835936969
C         6.90008238824011    1.23821501044529   -5.20448109033262
H         6.76083769038185    0.62354324968901   -6.08087836389704
C         6.05421234578762    2.28378804963350   -4.95005356034595
H         5.23684704849406    2.50859496244472   -5.61934136306995
P         9.51758920407029    1.41549334997768   -2.03362106193502
C        10.93024644511672    1.30900769718085   -3.17150365260810
C        11.13112153882646    2.42483849560286   -3.98488471792626
H        10.45451789572068    3.26746966734104   -3.91454853662134
C        12.20499459208437    2.46549501593737   -4.85212276250605
H        12.35232756202855    3.33369978491742   -5.47783118817615
C        13.09224088898556    1.40086020737047   -4.90642902176204
H        13.94353846375708    1.43645373805420   -5.57005009649605
C        12.89362157859673    0.29216164875398   -4.10065777781791
H        13.58945280983010   -0.53226712801633   -4.13566947362871
C        11.81470943567630    0.23905210480108   -3.23406982332903
H        11.66941537276547   -0.63011747892306   -2.61004815217277
C         9.22727522036343   -0.25211930952264   -1.38265260663826
C        10.20684379434098   -0.81073038654438   -0.56045832115683
H        11.13038738421007   -0.28038759176549   -0.36478088615149
C         9.99256369151932   -2.04240196185545    0.02975192290184
H        10.75907680876171   -2.46706628047173    0.66019373649264
C         8.80015339400425   -2.71767875437009   -0.17814270853182
H         8.63303846748010   -3.67762594073155    0.28743877914329
C         7.81628903676252   -2.15396471334019   -0.97337077311232
H         6.87988463308994   -2.67098130462678   -1.12558839267785
C         8.02278418216799   -0.92314098800457   -1.57108378250187
H         7.24425332364798   -0.48378031651135   -2.17998422277143
C        10.88243185323518    2.57913503001357    0.31045251056737
C        12.18996887329654    2.60957505150044   -0.05714077076925
C        12.70056005346244    3.45201543789395   -1.10541983399219
C        13.80208323983425    3.26515892180529   -1.86546551901740
C        10.48581767179751    1.79882386286110    1.50146375763573
O        11.16333391087093    1.58778239509378    2.47708881438076
O         9.20648832201788    1.37433764395709    1.37989215314545
C         8.69559930506724    0.62380823762556    2.47095115027707
H         9.44082388487085   -0.10145618359468    2.80487877726821
H         7.80201282591628    0.11977647136020    2.10949986283357
H         8.44991112691393    1.29233899142864    3.29935588973765
C        11.90236853213408    4.71765522359707   -1.35449071811686
O        10.85741639314326    4.74348637607247   -1.96686790875060
O        12.43503563461833    5.73824336467892   -0.71703424158488
C        11.72321042815352    6.97148785684680   -0.81450093735196
H        11.65083459730510    7.26840140020952   -1.86183078653522
H        12.29877221202304    7.69404433284661   -0.24331832612549
H        10.72240881115522    6.85872325152132   -0.39162472198548
C        13.12843861568863    1.65667739041609    0.64098463696495
O        12.98963426769547    0.45947874657893    0.60589583067398
O        14.08834876520157    2.29681040203674    1.28632798549779
C        14.98683039899964    1.47792336393377    2.02402458537395
H        14.42794877534344    0.86832047529205    2.73589833153970
H        15.66047068261313    2.15603564639033    2.54043179834860
H        15.53823587407155    0.82533577036228    1.34316415734112
Br       14.94827459275938    1.78165030432670   -1.72947160214276
C        14.13870666983846    4.20389903653018   -2.93716236131677
O        13.45478232285287    5.16369896220604   -3.21857890478664
O        15.25841724730280    3.87600742102201   -3.57993572894628
C        15.64325468107881    4.73081563515345   -4.64226865528683
H        14.84130081214093    4.80361009079968   -5.38001420378429
H        16.53189370958571    4.28473074463611   -5.08114871933148
H        15.86278531314063    5.73135324747267   -4.26379121715448

