34
CSD_code = BUPNEG | q = 0 | S = 0 | Stoichiometry = C15H11FeN5O2 | MND = 4
Fe        0.59543154052264    4.83804885252240    5.41664301724673
N         0.19645359581601    4.42840266393999    7.57960582221280
C         0.34538762794446    5.54999973920300    8.32523124931506
N        -0.76369817827476    5.24872471722114    4.64353800474235
N         1.08404922588116    6.69176312897350    6.33854163663718
C         0.28351810574765    5.50960153150762    9.72071568284030
H         0.43305485539881    6.40612697944379   10.29920535928181
C         0.65424951911709    6.79994144366386    7.61891228569902
C         0.00121578127497    3.26226243536664    8.21243965258009
N         0.38565200692423    0.93286522821430    8.01155550644756
C         0.53602134617001    8.05178162316515    8.23016293605646
H         0.13697545644952    8.13630067489251    9.22783815757228
N         1.87035475372265    3.95770683935094    4.95188052356167
C        -0.10749603076132    2.02112396177314    7.42256477540729
C        -0.07090908941252    3.16265879174672    9.59831177884026
H        -0.22005092218790    2.19228540776056   10.04143633365793
C         1.45599228481961    7.79948447998708    5.69428173870202
H         1.81264893127108    7.65247363803253    4.68341591555677
C        -0.18353132698798   -0.34676935998639    6.08289897951802
H        -0.17693339869351   -1.30247190136304    5.58289809765788
O        -1.79611533829051    5.67057914597632    4.20875907416415
C         0.90029481161183    9.19181969975126    7.54303192960271
H         0.80333256453504   10.16343164632324    8.00278659913860
C         0.06540714649484    4.30754468039108   10.36448190758479
H         0.01775522714016    4.26175896581305   11.44177405685917
C         1.39163634867653    9.06199757533636    6.24884344548360
H         1.70122556424852    9.92349461197730    5.67980563171129
C        -0.70211369414293    1.98238215097072    6.16261352317270
H        -1.15000890852722    2.87331080609256    5.74042891912638
C        -0.73611066013974    0.77448178100764    5.48500793665441
H        -1.18757210661302    0.71277410226520    4.50600883764151
O         2.81176830742483    3.29319925314138    4.64889423208697
C         0.35288206769788   -0.21016620788022    7.35592048343989
H         0.77783258514218   -1.05661908657907    7.87986596980029

