67
CSD_code = BUPPUX | q = 0 | S = 0 | Stoichiometry = C19H42O3P2Pt | MND = 4
Pt        3.50178629995355    1.21736540848688    2.63644234319703
P         1.60919194635991    2.50637705128402    2.40668851547312
C         0.67827181227178    1.69907842503394    1.01124624011149
C         1.60037538554519    1.46703125928563   -0.18455973367879
C        -0.63861916369565    2.34551780625256    0.59871426593807
C         1.66525131115837    4.36994809266015    2.16687273522586
C         2.25612029560977    4.68643877167254    0.79569392160964
C         0.37522886773260    5.15142215927518    2.39695010666762
C         0.46940650654180    2.31638123477433    3.86987916055131
C         1.25958241380348    2.72781090549569    5.11089435508983
C        -0.03321581517600    0.88274594283960    4.01712886211517
C         3.50194284208787   -1.21298205010541    2.63578730242414
O         2.42266340634164   -0.46505915960845    2.51636505516185
O         3.50194268951576   -2.41982588908506    2.63604193430949
H         0.47478555298167    0.70875124165102    1.43711724942911
H         2.38787732769032    4.69330801737777    2.92548151987282
H        -0.38917237312409    2.98457234896984    3.74271520627364
H         1.82843240195943    2.38646683425931   -0.71709737876171
H         2.53328245417725    1.01190699365294    0.15976475766667
H         1.13099944892291    0.77609251535221   -0.88252438419342
H        -0.47156310269902    3.27704760695771    0.06258666423848
H        -1.27334022170624    2.54020979355123    1.46051190188797
H        -1.17647395301274    1.67312601619811   -0.06835390448855
H         2.61361221642437    5.71502893508604    0.76162058985804
H         3.08979314068505    4.01798754277114    0.58426333403760
H         1.50739083568732    4.56951399153719    0.01684563570859
H         0.05044721403815    5.09251322655655    3.43210408764349
H         0.55631343755331    6.20142345239064    2.16868826768522
H        -0.42946566090625    4.80528575277499    1.75693077042584
H         0.65805026979184    2.60006567502365    6.00922334490245
H         1.57272950407459    3.76913933172742    5.05649755952072
H         2.14571434406251    2.09674764349343    5.19779607918145
H        -0.46332045056840    0.74359596976776    5.00781417588272
H         0.78259163362722    0.17242085359682    3.89369636267276
H        -0.80274963701563    0.65253250007963    3.28432215267530
P         5.39452364557014    2.50631249618720    2.86530654489295
O         4.58111632159627   -0.46499181039814    2.75575516205366
C         6.32547760684531    1.69910384764025    4.26079354758700
C         5.33858027558444    4.36989623695861    3.10517488463438
C         6.53443801795365    2.31639103484686    1.40219210124255
C         5.40339184109902    1.46706606935809    5.45661469895979
C         7.64237627097489    2.34551632407192    4.67335984850452
H         6.52896390548393    0.70876835853251    3.83494239256909
C         4.74771598671577    4.68644151299145    4.47634696888460
C         6.62860013007422    5.15138971871351    2.87510603059208
H         4.61595810745430    4.69328994457558    2.34657909330651
C         5.74428555468206    2.72783222548857    0.16116303290497
C         7.03705954678481    0.88275481986450    1.25492063217652
H         7.39302127112298    2.98457877631727    1.52937643370456
H         5.17537672320884    2.38650393878436    5.98916965820166
H         4.47045974271228    1.01196508651842    5.11233923974661
H         5.87277471149439    0.77611756026160    6.15457010532330
H         7.47531116436505    3.27704940991023    5.20947976363057
H         8.27710142273477    2.54020676322545    3.81156623493096
H         8.18023343538058    1.67313274406231    5.34043923788108
H         4.39024663707805    5.71504060588565    4.51040771779693
H         3.91402383254299    4.01802324663553    4.68779353796548
H         5.49643664862952    4.56951628070174    5.25520214515277
H         6.95338248498148    5.09246895086796    1.83995308457322
H         6.44754360391904    6.20140038005137    3.10336148295695
H         7.43328854355729    4.80523774754969    3.51512536516904
H         6.34582310597436    2.60007411700188   -0.73715766798713
H         5.43115931855221    3.76916545472929    0.21556310806163
H         4.85813864378368    2.09679558838925    0.07422383783076
H         7.46714695316867    0.74362258330464    0.26422450758412
H         6.22127188844448    0.17240668312935    1.37834677582788
H         7.80660947682644    0.65253710277402    1.98771143701225

