47
CSD_code = BUPQEK | q = 0 | S = 0 | Stoichiometry = C21H22ClFIrN | MND = 8
Ir        3.37961750798978    3.98232973627316    6.19324122084709
Cl        5.41693460194368    2.90510836207678    6.63169722289296
N         3.51860701464942    4.71580535919292    8.07848353431215
C         3.06468142506439    4.04803620752777    9.13903267670886
H         2.55055549581304    3.11847762895538    8.94293561015461
C         3.23861262176712    4.48746871163369   10.43478224653350
H         2.84866591125271    3.91022978647745   11.25740172654873
C         3.92952944744961    5.67435705563979   10.65078350039984
H         4.08591643009817    6.04542631883341   11.65195877359597
C         4.42360322846591    6.35991194711254    9.56053177148642
H         4.98256468791150    7.27132986991998    9.69467528132778
C         4.21232675074108    5.86537442862373    8.27396313137014
C         4.70602040200963    6.45095878024073    7.04353710267283
C         5.41929535992594    7.64655764982311    6.95496737110752
H         5.61835707296713    8.23175078120054    7.83957670163927
C         5.88070388399738    8.08997498031202    5.73423695674650
H         6.43314883426925    9.01068904000184    5.63651907024584
F         6.09255429051297    7.73415668680582    3.41675525753427
C         5.63488076693910    7.30949775728325    4.61519146532010
C         4.93603706964099    6.11936364302318    4.67568602410930
H         4.80385906548833    5.55037464873670    3.76951409324319
C         4.43710557155420    5.67378913570189    5.89323633532101
C         1.23704276653407    4.04754027195790    5.59485919583287
C         2.02781918787328    4.07788697118716    4.40159485102638
C         2.79734963296886    2.88007165577821    4.37589704012356
C         2.32740503041132    2.02653840950835    5.45642832966851
C         1.37280481025006    2.73254158276986    6.18805939410955
C         0.52537362011620    2.21305334057478    7.30603308622412
H         1.03832076589437    1.43203719693457    7.86506115385518
H        -0.39563585887199    1.78624419140030    6.90303796800791
H         0.24685785748830    3.00968458724308    7.99432939619045
C         2.77817177019576    0.61665139620180    5.64782292993922
H         3.85496864043136    0.58438794761174    5.81541013684634
H         2.55819668281692    0.02949626535419    4.75547585755334
H         2.28257508801586    0.15476477152034    6.49820088945639
C         3.66042990580325    2.38313258894910    3.25766081057155
H         4.01810066098926    3.20245369406556    2.63917632702536
H         3.09483788252120    1.69545120838814    2.62560902618955
H         4.52388213843856    1.85201648594629    3.65277343180789
C         1.92561562181485    5.12095296551409    3.33298143335489
H         2.01790953920289    6.12535449403831    3.74204528446047
H         0.95247898823907    5.04077118279575    2.84557428068168
H         2.69406145352176    4.98585098399554    2.57735566973385
C         0.16560814278092    5.03468774848261    5.93678956004679
H        -0.00054169161200    5.08487315005129    7.01138424014328
H        -0.77423323774546    4.74238758556100    5.46362563964931
H         0.42982316213098    6.02860080884223    5.58340699334507

