44
CSD_code = BUPRUA | q = 0 | S = 0 | Stoichiometry = C13H23Cl2N2O3Rh | MND = 6
Rh        1.08776033879993    1.02452398370422   18.59511093104848
C         0.76077240697175    3.24801714275387   16.27135166250397
C        -0.75518911776894    3.15311916614200   16.10584118759667
H        -1.02297380216799    2.24203982869959   15.57470119931870
H        -1.12360979308089    4.01415816323078   15.55368942147386
H        -1.22081075297066    3.13315015747601   17.08687902416628
C         1.13842713482982    4.44663736385971   17.13606357273285
H         0.70587425994044    4.32287403859537   18.12590359602770
H         0.76323211343768    5.36403806909314   16.68963193350158
H         2.21791349408151    4.51229466356499   17.24961081106768
C         1.49612084916602    3.23916495216181   14.90332712726018
H         0.80627659033202    3.20922388290701   14.05638010920216
H         2.17722880493080    4.08620844210196   14.78813180552014
C         2.05973955392984    1.43376636008022   16.06276660360283
C         2.70631206429946    0.13554851924550   16.40062726087888
H         3.69946012318234    0.07977671018069   15.94892825600822
H         2.08767240507534   -0.66031347358288   15.97437899362937
C         2.73082242159706    0.03625776755696   17.92920966803761
H         3.62859762809749    0.53472280368947   18.31448069135097
C         2.64309212870301   -1.37725680716103   18.50761391503285
H         2.00907588376103   -2.00938714138472   17.87825155204107
H         3.61574132329428   -1.86287630287099   18.61646643166047
C         1.97907149741141   -1.26628037713288   19.83418203984661
C         1.35461859899813   -1.82690415964809   21.88634334698474
H         2.00016362991613   -1.75132883475352   22.76421716030924
H         0.60982366585707   -2.61085961538122   22.04916312950195
C         0.71174020681390   -0.46679712089567   21.49783086862123
C         1.20593433082357    0.67829453075182   22.38001657830206
H         2.29088946557074    0.66216274808598   22.44953577215843
H         0.77785717329798    0.59768569841852   23.37620552479318
H         0.92587467075978    1.63219955333516   21.93861119603907
C        -0.81635060438888   -0.55292800613123   21.50602840131405
H        -1.25396915179123    0.43862759556671   21.42787292397957
H        -1.15563348032174   -0.99864913267070   22.43830120088536
H        -1.16443069159162   -1.15937009438581   20.67192260541663
Cl        2.40919381877813    2.52637459069571   19.69523995504320
Cl       -0.38248314803396   -0.46504432053636   17.55774398646625
N         1.26637995300940    2.01880207099708   16.87701695083708
N         1.20908347826821   -0.28870584054930   20.13344033841454
O         2.26941912639854    2.03661040678753   14.89449012578490
O         2.15512068889111   -2.19929448872643   20.76603033177144
O        -1.04111808145437    2.07756362072834   19.15393765023196
H        -1.20830323570448    2.07157965952942   20.10084271062320
H        -1.48661796995667    1.30797322587194   18.75918144899858

