95
CSD_code = BUPREK | q = 0 | S = 0 | Stoichiometry = C39H51NO2PRh | MND = 4
N         5.14979338063615   13.09067549913938   16.46487728263576
C         4.70166593700314   14.36560744513765   16.39236949002182
C         5.11502556945037   15.40782832700463   17.28184455750749
C         6.01722546043342   15.22277419461516   18.35359053471921
H         6.23166837598507   16.08954727145816   18.96973345318505
P         6.79945003958874   13.77808113749973   18.74877962641873
C         3.76214531899301   14.72821146793505   15.39101130480558
H         3.41951928915999   13.96625724762126   14.70702002218737
C         3.27725101647098   15.99978044276610   15.25679902213675
H         2.56554045670781   16.21916188364625   14.47382065842015
C         3.69495465579262   17.01303313655712   16.12276828077223
H         3.31344680354365   18.01695357803714   16.01518250793548
C         4.59195363284710   16.70513031679207   17.10808476163703
H         4.92482104706602   17.47406132144394   17.79218167788943
Rh        6.41748891909408   11.94108735893702   17.52584140819758
C         6.02538126312655   10.43452833919700   16.47023964600382
O         5.87433366764661    9.44256094093738   15.91982262227815
C         7.58470827394816   10.84934082560827   18.44289488871694
O         8.31680495439542   10.15021801283585   18.98555555636152
C         4.60978452165694   12.18930737413831   15.49993310680634
C         5.24073602482458   12.04322909721118   14.24946913368027
C         4.79773235479482   11.03888796114723   13.40322249934272
H         5.29509637559836   10.87262427204831   12.46056976883751
C         3.72222553009503   10.24075973154824   13.74975021299850
H         3.40289356031652    9.45072001827532   13.08646181538828
C         3.03328879325393   10.47384474442012   14.92618162529523
H         2.16901722544444    9.87197382721894   15.15993798858631
C         3.44046778272990   11.46676210116601   15.80349763423128
C         6.39061671134256   12.95269209600274   13.86905929720256
H         6.27824692086370   13.88907178083197   14.42672344895516
C         7.73620747881768   12.33262763218038   14.26060383420377
H         8.55317876691154   12.96794481439654   13.92483400932305
H         7.85009166917392   11.34793611010615   13.81122365115473
H         7.80706293510220   12.23151836293213   15.35422275154780
C         6.38163028664005   13.30114510740210   12.38030368271864
H         5.39108150015090   13.62555285783874   12.06923675906465
H         6.67759263508880   12.44977157546563   11.77219301877770
H         7.08378005186450   14.10987657961337   12.18861776582507
C         2.67721434856521   11.76120969281328   17.07782994892542
H         2.91131174097326   12.78748539652383   17.38219416854262
C         3.11663028267941   10.82413970071541   18.20757894091267
H         4.17649728716497   10.99165617158132   18.45143536113229
H         2.98765699700948    9.78398582423184   17.91491698880657
H         2.52685580507727   11.01262085614396   19.10228072376995
C         1.16422322960820   11.67690579181474   16.87381114719437
H         0.83793738167470   10.64773771415802   16.74612117810252
H         0.86440976396514   12.24928043995078   15.99880750175877
H         0.65301990072278   12.08533024487315   17.74309861983339
C         7.72978561272600   14.25952759720822   20.24403358932401
C         8.99079702987359   14.87471935426067   20.11494027918993
C         9.48319751152078   15.59283096642521   21.19904867937678
H        10.41963533144611   16.10591145366712   21.10204624875900
C         8.80159348181232   15.69471055035872   22.39750373828290
C         7.63380856856033   14.95954430423344   22.53414707291654
H         7.13745232589619   14.98703377171770   23.48618631274806
C         7.08016911362590   14.22296841791135   21.49805566061063
C         9.87661669898975   14.76544289605320   18.86618355110717
C         9.97228554480828   13.30339499452932   18.40883350465097
H         9.05428200830240   12.96792991426853   17.92420845994710
H        10.18003387218516   12.65195295560151   19.25565983189093
H        10.77648867514534   13.19119403241918   17.68433292786228
C         9.34761483838339   15.64422866626238   17.72442787601918
H         8.40917231430462   15.26458151094563   17.32667713912717
H        10.07240004856728   15.66654450646673   16.91301901049987
H         9.18928720240402   16.66302097205867   18.07282016627286
C        11.32042110962601   15.22045012318736   19.14305604277683
H        11.93120530075360   15.00520726647202   18.26850947258773
H        11.74830680484228   14.68644709940689   19.98834332506765
H        11.38189303877725   16.29152785850207   19.32012439193544
C         9.29774347278802   16.53343056273145   23.56503123885568
C        10.57820144522182   17.30694563139973   23.23799798662100
H        10.86562426726542   17.90958314566922   24.09724591989002
H        10.42623343028725   17.97669566501253   22.39454421793250
H        11.40065985360750   16.63099945832644   23.01554944288344
C         9.58730437636584   15.61133746648803   24.75780725016394
H         8.69206269286325   15.08814019701786   25.08237543585242
H         9.96467870170248   16.19182970040912   25.59698256159863
H        10.33588533160551   14.86971408465668   24.48639249306379
C         8.21222857245419   17.55066648186385   23.94451540264948
H         7.29523611706052   17.05796942233823   24.25534723205002
H         7.98407343870675   18.19081507489711   23.09473175386562
H         8.55583337541860   18.17648418311014   24.76538904316955
C         5.84447402482541   13.36268854535472   21.79899492756689
C         6.14401121835975   11.90464878133764   21.42692824618969
H         6.25059054876906   11.78014285542079   20.34896582687762
H         5.32951836671774   11.26135533648900   21.75397621281073
H         7.06195924154946   11.57115934179876   21.90703118768427
C         4.59059587473704   13.85013859585872   21.05722998403589
H         3.70390285157072   13.41100922209450   21.51046892120773
H         4.60135216673447   13.55925991480209   20.00856971888144
H         4.50571213835782   14.93323390548965   21.11780566936451
C         5.49124709857527   13.35703110702977   23.29622088216809
H         6.33151563354878   13.02746342853905   23.90304317636132
H         4.67315900011190   12.65835553423779   23.46089689881681
H         5.15648440531449   14.33529652130689   23.63386720446838

