52
CSD_code = BUPTEL | q = 0 | S = 0 | Stoichiometry = C19H31PPd | MND = 7
Pd        3.26857337644537    3.23948009235515    2.79757193168920
P         5.34555028897411    2.83841538131690    3.56319656190893
C         6.65899232085144    4.49091535901655    1.76370292938815
C         6.41350754796593    4.35059671869580    3.26547301580548
C         7.71105558898878    4.49284383287641    4.05619518311171
C         7.65883533507540    1.15520521152821    3.12723218913667
C         6.17216314638254    1.32780977799590    2.83985539477345
C         5.85735316002896    1.25091573099198    1.34472487290847
C         4.52635702434224    3.73444600481220    5.98142835488447
C         5.43217480831385    2.64083348900497    5.41526771635531
C         4.95258411925606    1.27283821604686    5.88790530688701
C         1.95107452807628    0.94538752256515    1.76363121405375
C         2.59933064809458    1.24606729315183    3.03671493437186
C         1.49486516226390    1.45994920896029    3.97284798146915
C         0.32072059043731    1.32572429251398    3.30102649054808
C         0.60322338041708    1.00287179756633    1.93388170428297
C         1.41730609056109    4.79658524194062    3.29054617905234
C         2.55544433828785    5.57236853729424    3.39286601527068
C         3.27118469367745    5.47372134750690    2.14386280455808
C         2.49122981436333    4.72514162935404    1.24301075757924
C         1.41712694074961    4.18993764058127    1.98396357717589
H         5.74779326899527    4.24714179518739    1.20961480946897
H         7.45719463286622    3.82938473118773    1.43604206240836
H         6.94954309039499    5.51180318156736    1.51873730581795
H         5.74527332258558    5.16931083529689    3.57033303656221
H         8.21340567980130    5.40672833767572    3.74022661185288
H         8.38898635595278    3.66311365915407    3.88405444264663
H         7.52291842469689    4.57492229748192    5.12374675620497
H         7.87003524832092    1.26564890774084    4.18879516953051
H         8.25416206955193    1.87386398784202    2.57015653104568
H         7.97405409794052    0.15816776681238    2.82167888655383
H         5.63500179286274    0.50534721508551    3.32909857886151
H         4.84828168998759    1.64421361202394    1.15543352130051
H         5.89545758355879    0.21921972782638    1.00035245312487
H         6.56836401964984    1.82750882312111    0.75919032226078
H         3.53693912943186    3.66502384563159    5.50415369296275
H         4.93404531452523    4.72571381461508    5.78948408984876
H         4.40183454153504    3.61878868152515    7.05683980659545
H         6.46382065194974    2.78950596402771    5.75146571530482
H         3.94496447649978    1.08075687435960    5.52673090566709
H         4.93366254201572    1.24951979784505    6.97685456316576
H         5.61010104758468    0.47534322920984    5.54968328148874
H         2.47500776084837    0.66035117179202    0.86277171427176
H         3.42917909087011    0.60746229824651    3.34158958530550
H         1.61220175249738    1.63184613882897    5.03455713493688
H        -0.66898218624894    1.44727020608977    3.70744253365982
H        -0.14635641029366    0.84385007270476    1.17702172574877
H         0.63128460868107    4.69188621058020    4.02326021814738
H         2.83668426481935    6.21028449617858    4.21861480390741
H         4.11118316664662    6.10211394079456    1.87489218422421
H         2.68249618496712    4.57848994992226    0.18703181918847
H         0.57770988324568    3.65106410388273    1.56634062240838

