105
CSD_code = BUPXUG | q = 0 | S = 0 | Stoichiometry = C45H50CuN2O2P3S2 | MND = 4
Cu        3.91288739513197   10.49326944724787    8.65425833914204
S         4.30673256714736    9.62118933653589   10.72073296034664
S         4.99172852085627    9.69389997418341    6.74414089167322
P         5.26966675606163    8.26997712621263    9.61565800728717
P         1.60019592700111   10.43106551359336    8.46713040080737
P         5.23596658749908   12.44843995718811    8.96765127450015
N         6.52535486403597    8.69245778903676    8.69134461398949
N         7.60506464759083    9.36180591693576    6.81564682889581
O         4.33506045488008    7.28912426710655    8.78920139858580
O         5.93282073961345    7.22742538371240   10.62873259872617
C         6.45198126907898    9.21697412375599    7.49020448986410
C         2.95247494115352    7.05975995043014    9.06116137749516
H         2.44252334988566    8.03696082143938    9.07925192128780
C         2.41487969762812    6.23076210597000    7.90532434425338
H         2.62155290119621    6.73163129644939    6.96310917628574
H         1.34096600787805    6.10417383925240    8.01335115414750
H         2.89520573940525    5.25527242668162    7.89474104652971
C         2.76749231002463    6.37904499902860   10.40627585563060
H         3.17357575326624    7.01086960050313   11.19378799192620
H         3.29333722360786    5.42699564347540   10.41695276430993
H         1.70897004419241    6.21699276346035   10.59583255751606
C         7.03464578831298    7.65729383173828   11.42580728985700
H         7.37833959894715    8.62859610751167   11.04628116440225
C         8.15023477984458    6.63308204421933   11.27018743644993
H         8.42340365344745    6.54674566265723   10.22157446530978
H         7.80995345983163    5.66231336455692   11.62223885212851
H         9.02104103874578    6.93855618952811   11.84436938245832
C         6.58106346730317    7.79997450772301   12.87246906775645
H         5.77717768676638    8.52981852213136   12.93566698587323
H         7.41048921591696    8.12882097322600   13.49325684064218
H         6.21422257489988    6.84419478842092   13.23957050263818
C         7.68609658008440    9.86860760054381    5.47199739828459
H         8.04364485504608    9.08829183693352    4.79426069817804
H         8.38128068704223   10.71145645770584    5.43820772663689
H         6.70092998737341   10.19438197885093    5.14783877740935
C         8.83982538112610    8.83587608937007    7.34232818247276
H         9.63545387506309    9.56880510311475    7.20022165607927
H         9.11165443500968    7.90988196411381    6.82506260102255
H         8.71859312911847    8.63347890483310    8.40271535126389
C         0.53716488538833    9.64299894287067    9.71406209669886
C         0.82671061072386    9.91915496551424   11.05048737867995
H         1.60963740166269   10.62618286559467   11.29020586377843
C         0.14014661821152    9.26903215287165   12.05734936673533
H         0.36734144539519    9.48781883744169   13.09031575571078
C        -0.82669880478996    8.32695316922297   11.74216453653880
H        -1.36079647812544    7.81562074336923   12.52965267089336
C        -1.09693028080797    8.02946745433990   10.41644754404230
H        -1.84030736692853    7.28450876539461   10.17035986102878
C        -0.41377461407659    8.67608483986014    9.40211952645511
H        -0.61715062228722    8.43084354574489    8.36892033704990
C         0.76343551443979   10.05987932243327    6.89110837513382
C         1.47214240854933    9.38259428991926    5.90670375213780
H         2.50198350183660    9.10739760406606    6.08954257912461
C         0.86577739029750    9.09114006268693    4.69677643859702
H         1.41765293338648    8.56535284363342    3.93172754513268
C        -0.44357665903488    9.47814060065595    4.46817150882173
H        -0.91799228883313    9.24983688593389    3.52480738593836
C        -1.14776483994588   10.16712159200966    5.44489984240733
H        -2.16674179971786   10.47561808625766    5.25982827211906
C        -0.54843396740428   10.46274641545769    6.65382426285832
H        -1.08988957350319   11.00381289096341    7.41809820515342
C         1.20168658280053   12.20094175205603    8.59506610200442
C         0.27253333268998   12.76041159199257    9.46245940961569
H        -0.31057136779580   12.12808841754609   10.11760598019837
C         0.10764076308283   14.13474485872446    9.49207621047867
H        -0.61070341046303   14.57200797861420   10.17068064788049
C         0.85604364559629   14.94881272621335    8.65879530096173
H         0.72355651036097   16.02015434743817    8.69153312633892
C         1.77554721921899   14.39141187529102    7.78292244573130
H         2.35896204993749   15.02363596137325    7.13016627633615
C         1.95207781176536   13.02279288225564    7.75637315452175
H         2.67451857424266   12.56382908985208    7.09109275747937
C         4.87361418789733   13.36155060103986   10.50063017286282
C         5.79848703029248   14.18663044532872   11.13432551783474
H         6.79624937147102   14.29168800814430   10.72958916206647
C         5.43782446094355   14.86556510872247   12.28344287114702
H         6.15553040490319   15.50714797683870   12.77470744509755
C         4.16144196977563   14.72669771226013   12.80661989127094
H         3.88786089940431   15.26012915681158   13.70536390364062
C         3.24223020988312   13.89933700449140   12.18352834507863
H         2.24983468860587   13.78257322971680   12.59397393848372
C         3.59972440128708   13.21698196854063   11.03562941476686
H         2.90219850122755   12.55276881102545   10.54349895787535
C         5.25901101310361   13.76152089629890    7.70351717178196
C         5.19469307686248   15.12084278463344    7.98286567408012
H         5.13959595721716   15.46353106926781    9.00587296324841
C         5.19548452118061   16.03684967233325    6.94529992865871
H         5.14980096422846   17.09395024147057    7.16588186410879
C         5.25143934136862   15.60690266429440    5.62960590519010
H         5.25165710251415   16.32817600188578    4.82529163164031
C         5.29523702191786   14.25073539470715    5.34617809360225
H         5.32412790044874   13.91130786816990    4.32094125768079
C         5.29199216228747   13.33121982067372    6.37763100658087
H         5.29977411780409   12.26808307754265    6.16990427169346
C         7.01080838094993   12.10782302522095    9.18624009794611
C         7.39151209955203   11.46683662724613   10.36454817626516
H         6.64067228467686   11.24050776034932   11.11069681316084
C         8.71392025673570   11.12753982863622   10.57269016282428
H         9.00601510834924   10.63505301919073   11.48956899765336
C         9.66628947557045   11.42126962738992    9.60942741619005
H        10.70147673503308   11.15984297296090    9.77534946502431
C         9.28833799378581   12.04618198690306    8.43268506917008
H        10.03112546262946   12.27862928922068    7.68174042362202
C         7.96422817768928   12.38115337666557    8.21227997801558
H         7.67188970360796   12.86386640502443    7.29008512304952

