108
CSD_code = BUPYAN | q = 0 | S = 0 | Stoichiometry = C46H52CuN2O2P3S2 | MND = 4
Cu        2.34051420122660    3.50715163664137   11.94290610310247
S         2.55759634327855    2.31159914866646   13.95327239213568
S         1.81576442595096    2.53639851360821    9.93839420230390
P         0.93785777831354    1.38337890441120   11.27322143609029
P         4.63811419109812    3.92320693485287   11.77356640346862
P         0.90324636274085    5.30012603693901   12.08707453974375
O        -0.01320723991206    0.35950502458609   10.49637298400050
O        -0.15937019913106    2.19560282803306   12.11079259028813
N         1.82106382869302    0.38765083917307   12.21048829932266
N         3.17031787556647   -0.19706260301249   13.94401601863485
H         3.57639030501891    0.09095960944675   14.82121859085029
C         2.48632806376864    0.74372283698431   13.27676312627074
C         3.12983857102253   -1.60921480033145   13.62735531807024
H         3.20655388600482   -1.69052004530740   12.53685258434376
C         4.31626715783575   -2.29542880077141   14.29106054856077
H         5.24409150567513   -1.80780249339424   14.00381738137029
H         4.36033706328107   -3.33948515767798   13.99285500162388
H         4.21905844364253   -2.24964787076478   15.37416937279903
C         1.80348198128491   -2.22921498151507   14.07182237127592
H         1.67772435587196   -2.12404324399539   15.14752944183642
H         1.77537523332698   -3.28482500898918   13.81453733240246
H         0.98078002315448   -1.72498114949666   13.57187916365671
C         0.40418739223682   -0.33083937525352    9.32161564708646
H         0.85651119239450    0.40328149595429    8.63936959627029
C         1.43379308763596   -1.39727553445917    9.66144632630788
H         2.30217488248961   -0.92358651313982   10.11320896133817
H         1.73730348408688   -1.92323577323649    8.75996343026443
H         1.01518947539321   -2.10501408844582   10.37352606575683
C        -0.85026656916563   -0.92060793248049    8.69172271634246
H        -1.30510868800209   -1.63579174249264    9.37341187026003
H        -0.59561754331908   -1.42348483710383    7.76308689790979
H        -1.56855144127917   -0.13184335878439    8.48223928565166
C        -1.00616536874837    1.47957729671012   13.02336018984588
H        -0.57942816683515    0.47854022313227   13.17404472641537
C        -2.39491745186858    1.35422271728051   12.41640925353100
H        -2.81508916774301    2.34376813272409   12.25254145481910
H        -3.04083683527618    0.79538605821801   13.08916293693647
H        -2.33549320471881    0.83467884083468   11.46363733328448
C        -1.02278684187015    2.23478440931088   14.34336372837719
H        -0.00984100214091    2.32288967924989   14.73074515206654
H        -1.63351894448904    1.70106015328697   15.06691697365913
H        -1.43045611482488    3.23167511358096   14.19079117117712
C         5.68162605039126    4.32551216807439   10.32771274069158
C         7.00495764215829    4.73119415475246   10.47100576439390
H         7.42865037626021    4.83748874489599   11.46037571424207
C         7.76489474778157    4.99943729166793    9.34884244732790
H         8.79155017951155    5.31884026813923    9.45765419799378
C         7.21415696805747    4.85609244548074    8.08385359013503
H         7.81337344797251    5.06794560010146    7.21006998820232
C         5.90267498849543    4.43633377809498    7.93978652265974
H         5.47642278332943    4.31669353633660    6.95443203230923
C         5.13419044866418    4.16787230445302    9.05967355897085
H         4.10999671670347    3.83193065133624    8.95938308608049
C         5.63553052513296    2.54479178944846   12.42222879648217
C         6.57486669337482    2.62507824043296   13.44109012414809
H         6.75512289569517    3.56525999038574   13.94286671056963
C         7.27287068747044    1.49002481031016   13.81552577104354
H         8.00265558809406    1.54901482464364   14.61057519243033
C         7.04549687161626    0.28285228182340   13.17580483987942
H         7.60168255641504   -0.59564618093931   13.47178245358371
C         6.10876221312393    0.20106547917035   12.15670149362399
H         5.93039679659792   -0.73979623502709   11.65570412560784
C         5.40267931818406    1.32733679130761   11.78497288453564
H         4.65698525325495    1.28157702444823   10.99926954314932
C         4.91436833416902    5.30573115893218   12.90534271118081
C         4.65081096111888    5.11330858691542   14.26096120266204
H         4.36442418207579    4.13150872441017   14.61127986986674
C         4.73782598714343    6.17381605864098   15.14134832914435
H         4.54817193237417    6.01481244411264   16.19256101079752
C         5.05680334184728    7.43968329303025   14.67725362411077
H         5.12320460368999    8.26786406363613   15.36738414546231
C         5.27761792084622    7.64421683373251   13.32540253812192
H         5.50859757857889    8.63415347517804   12.95871678131980
C         5.20381196262271    6.58598612424472   12.43936048691109
H         5.37510557886448    6.75095257220512   11.38450843320850
C         1.25845615187068    6.45741956248917   10.72435249331909
C         0.35449584270967    7.41696866261760   10.27755422273788
H        -0.62094187673669    7.49750688063204   10.73701720404229
C         0.70802198426176    8.26528259878378    9.24400833964570
H         0.00451621764458    9.00923185079183    8.89824204488485
C         1.95676754362635    8.16584112862641    8.65054062364389
H         2.22281149779093    8.82969316069959    7.84095192022640
C         2.85936944215577    7.21223730098837    9.09207513478715
H         3.83145774058123    7.12361146073578    8.62859087949249
C         2.50771007489330    6.36276062470827   10.12363970869467
H         3.19513435533568    5.59997351029946   10.47194626799983
C         1.24897610073335    6.31280515807989   13.55707933472656
C         1.56812963461213    7.66462208569061   13.51713157434903
H         1.61664032253508    8.18296535584293   12.57032386425417
C         1.82343066335181    8.34502734328182   14.69410101752639
H         2.06730208553722    9.39714509157442   14.66054180678959
C         1.76471906811402    7.68653273306602   15.91089870249812
H         1.95916117514061    8.22631314679757   16.82636173943804
C         1.47015349401500    6.33309606172720   15.95275086997527
H         1.44022378843112    5.81234057842656   16.89868079666888
C         1.22354263229123    5.64585421335623   14.78030162060254
H         1.02373946185213    4.58306824768993   14.79540107338499
C        -0.91274410046050    5.24875165966176   12.01873492084345
C        -1.46079036958861    4.72287427458965   10.84926273923265
H        -0.79933157372251    4.40939308952705   10.05184268796729
C        -2.82994824115712    4.60196043709246   10.71969637581573
H        -3.25374618304901    4.19718753269373    9.81184865214155
C        -3.66180036503124    4.99143895683630   11.75999751667926
H        -4.73326035873947    4.89357905739365   11.66081831102371
C        -3.11863819201179    5.49809883483802   12.92896438868279
H        -3.76688464550806    5.79566080591903   13.74100158302859
C        -1.74632130256293    5.62497601584356   13.06496520146064
H        -1.32334453908898    6.02178836998887   13.97791675318181

