44
CSD_code = BUQCAS | q = 1 | S = 0 | Stoichiometry = C12H27BrNPdS2(1+) | MND = 4
Pd        7.06468576306446   14.02085756253372   10.30124998671572
Br        8.43544643686551   14.11259038587165   12.20897052595861
S         7.00178105541211   11.71971953286927   10.34743071554736
S         6.96214429705782   16.31652020577293   10.15434213032819
N         5.77343129308810   13.93738318539154    8.57903809108645
H         6.37685602177658   13.90893594522725    7.74945595421410
C         4.98894124594623   12.69754307867281    8.64125633936295
H         4.42010498399130   12.53850287556364    7.71373834164438
H         4.26829840519977   12.78784457833742    9.46340922254459
C         5.90490441138641   11.50530087543007    8.88224529763187
H         6.59368307024463   11.36440959258110    8.04688416353364
H         5.33161501798272   10.58940748395582    9.01730687665341
C         4.96645480014549   15.16366939515399    8.54031945687028
H         4.24875684797031   15.12901978473816    9.36929793196952
H         4.39352378823977   15.23472713329133    7.60444654466612
C         5.86085406084903   16.38815655592235    8.67859298866706
H         5.27125355366499   17.30173940010257    8.73782172894548
H         6.54649813565299   16.47098917843008    7.83292937225036
C         5.83370679920924   11.64801920013185   11.75444972214440
H         6.45237952026420   11.91187976176473   12.61707299269395
H         5.06319352956386   12.41840352755613   11.62220796723240
C         5.22007562011436   10.26586724184593   11.96584188306941
H         4.62465705662335    9.99019501747710   11.08739842524176
C         6.31293141512976    9.22295197027915   12.17653757472611
H         6.97070033325864    9.15672952706371   11.31208357091169
H         5.86987172035298    8.24477411625007   12.33998539324498
H         6.91355142490612    9.47500403617787   13.04695385284066
C         4.28872783209255   10.32695284890214   13.17595275580556
H         4.84529325642030   10.59483210807986   14.07011677707710
H         3.82907535945236    9.35652214795142   13.33847380488522
H         3.49660395744435   11.05777607756261   13.02814572171734
C         5.79421362819619   16.48499624166125   11.55333760529867
H         5.04123033174313   15.68872502402756   11.49148717082893
H         6.41980583685070   16.31140305843941   12.43364348336250
C         5.14995718791803   17.86630603543903   11.64522281881215
H         4.54914074240898   18.05165594865088   10.74697644148092
C         6.21867104438510   18.94809912177203   11.76417195531240
H         6.82077507956575   18.78865503944541   12.65516809251687
H         5.75393581390996   19.92714548777689   11.83759901522875
H         6.87862899728191   18.95041660477308   10.89895479990395
C         4.21904749776885   17.88941810385354   12.85703452298267
H         3.44285557901542   17.13180134876172   12.77299979966942
H         3.73858664321386   18.86025894030121   12.93617944315271
H         4.78025060437537   17.71099471419426   13.77056874126736

