58
CSD_code = BUQFUQ | q = 0 | S = 0 | Stoichiometry = C24H25CrO7P | MND = 6
C         8.90119497208462    3.25510168429050    7.11709383046737
C         8.73665682374092    4.75421562495390    6.95400224651140
C         7.70399478382995    5.00053893479992    6.15117551700511
C         7.09356012271348    3.70421935850850    5.62998415303248
C         5.93929893281027    3.24908496316132    6.56623269203024
H         5.29926696090774    2.54948060136587    6.01193447130946
C        10.30539352930047    2.78582922846936    7.45737588773024
H        10.35177674645084    1.69956436255607    7.46486302660745
H        10.55771461418884    3.13692598506283    8.45437808451458
H        11.02862824561236    3.17710163221535    6.74839772036318
C         9.57809225835867    5.69875634688810    7.73774732483474
H        10.61603102468635    5.65204119332243    7.41023458024509
H         9.54503563341754    5.42722126787915    8.79219520286767
H         9.22675589846986    6.72030071497373    7.62752821003362
C         7.16726857028056    6.32900419123496    5.73984635802663
H         7.51424075347940    6.58165734826596    4.73768371476468
H         7.50018991672089    7.10716965016722    6.42044610828539
H         6.08039861326707    6.32284625334178    5.73061793736892
C         6.55996529834864    3.87896761824257    4.20882190520167
H         7.30026621385445    4.35603816202970    3.57254591069884
H         5.67693780538679    4.51318454692944    4.23392880472663
H         6.28166421038486    2.92895020342455    3.76324057092342
C         5.07831447993781    4.34202490159385    7.11736058146240
C         3.84573258626598    4.63376771582110    6.54479157469806
H         3.50878636761665    4.07461561403536    5.68255068463893
C         3.03911049652379    5.62356899461323    7.07771737942552
H         2.08196631117306    5.83667796176901    6.62520982104588
C         3.45165916226714    6.32968580277089    8.19437195182917
H         2.81747972620121    7.09536483634655    8.61506531217936
C         4.67458748668072    6.04162755505000    8.77588112002201
H         4.99791908814299    6.58017338994339    9.65405500192167
C         5.48138413206857    5.05271154980748    8.24294325044938
H         6.43807614900408    4.83648830786400    8.69584402625008
C         7.93373752242550    1.21145698391336    5.94774326899544
H         8.87809925557133    0.68431978014710    6.14955539851183
C         8.28504608046038    2.70741655471889    5.79701862878144
C         7.28710979321957    0.54163403571566    4.73880855863860
H         7.91608656111880    0.62583687271550    3.85851354172967
H         6.30807321348293    0.96347739680322    4.53518001452593
H         7.15093726798405   -0.51190671868226    4.97101637079221
C         9.29721560125269    2.86426989619444    4.65955922493471
H        10.13277944707406    2.18303048478945    4.79683028353514
H         9.67574151404278    3.88316956926804    4.63542265266659
H         8.83858859508855    2.64542772491074    3.70092841379364
C         4.72542304288380    1.03123932668573   11.45949905861787
C         7.08561481667230    0.61160256599444   10.25817397937455
C         6.25274912083731    3.04618255832134   10.82442831380242
C         3.99118420394914    2.56578239534989    9.54121847420633
C         4.82253858494104    0.13866950375559    8.98269174991286
Cr        5.54174740682021    1.59408993803371    9.89986393104700
O         8.06582880483349    2.89442526976919    8.25394904853023
O         7.08353465905022    0.94272044142737    7.07718546163334
O         4.20435295322971    0.69039000934241   12.42814933419854
O         8.03697544989211    0.00715211727037   10.47715837326825
O         6.66544588134045    3.92033902246262   11.44643717350438
O         2.98496318146930    3.10839373203832    9.40900640349790
O         4.35860063691483   -0.77136074748078    8.45691556915865
P         6.63727849125243    2.21923478486178    7.96218181087105

