64
CSD_code = BUQFEY | q = 0 | S = 0 | Stoichiometry = C26H34ClN2Ta | MND = 9
Ta        8.70619093124264    8.02923271003756    2.15902833264852
Cl        7.52995504318595    7.77176948235300    0.26615589448104
N         7.64675605433490    7.27866547486174    3.79902586990720
N         9.56004002373547    9.01932223259835    3.54632639108568
C         7.53669824659266    7.75284074826165    5.08678548038029
C         6.47021470032068    7.40999158867156    5.91874839687535
H         5.63472660619977    6.86239156024429    5.52700319568674
C         6.42625204192691    7.73496411633005    7.27155679923540
H         5.57461192906261    7.41420770155397    7.85444551827640
C         7.44029476674851    8.43957923233678    7.85427400110517
H         7.42624414320659    8.67760143444437    8.90707789348481
C         8.49915000376143    8.91405811030919    7.05600584070299
C         8.54605030845121    8.60373623469098    5.66878149723951
C         9.56607169605289    9.23289729330348    4.90050533694690
C        10.49658289265319   10.06850961463672    5.49600651382012
H        11.25840271768689   10.52190629061234    4.88072052363631
C        10.47070322831427   10.30506015963895    6.86826132961318
H        11.21851340800083   10.94414076405962    7.31479879001757
C         9.48857366293489    9.73957071917982    7.63237860782162
H         9.43741305888595    9.93213112441742    8.69399301536769
C         6.80296009668040    6.15990046637221    3.36947840792200
H         7.31136548611512    5.76510322411091    2.47837408424515
C         5.41250851819041    6.61726079625264    2.89688011452955
H         5.51604547709603    7.35387102334626    2.10016303921795
H         4.83024839345579    7.06711255239486    3.69615366026233
H         4.86505135643214    5.76212669137409    2.50589073388561
C         6.72019894196989    4.97551068846492    4.35284099635153
H         7.49477872710375    5.05467732139889    5.10968159396613
H         6.86506587340892    4.04617486182203    3.80880766754303
H         5.75559367791651    4.91738997175835    4.84952981673949
C         9.54349425697141   10.03373838877222    2.57502701901991
C        10.86925522516225   10.52885173260923    2.01409224014767
H        11.22626871809641   11.39270159579156    2.57710420772882
H        10.74712683982479   10.84156568563410    0.97672863787652
H        11.62362292065464    9.74827740780302    2.06503235386535
C         8.60043895870326   11.18600279881436    2.89548100994380
H         9.04635768199205   11.86009510484960    3.62949192734509
H         7.66508906796263   10.80549988173000    3.30962417567110
H         8.38512607499171   11.75753157713067    1.99364782203419
C        10.09421893387486    5.29046088443393    2.55529428811830
C         9.58827685260657    4.37157829078235    1.69182366208528
C         9.71854554694600    4.87748276173056    0.33167554772738
C        10.31046106210558    6.09816051746310    0.37119465042261
C        10.53584002297959    6.47209134358871    1.78484693405826
C        10.31858261893248    5.17978089752704    4.02965278177862
H        11.37558782249869    4.99792599116152    4.23263680340084
H         9.75136131630355    4.35576753605569    4.45328112987870
H        10.03228389164454    6.10295758270820    4.53329468773427
C         9.00957561277364    3.02877028733994    1.99041489544473
H         9.59650975484458    2.24894078519047    1.50436280104315
H         7.98975476445687    2.95719184404404    1.60934424582927
H         8.99928182658199    2.83314869481457    3.05930616678627
C         9.25588610309165    4.11214026708957   -0.86213522966239
H         9.77773334677516    3.15728433750381   -0.92909678221489
H         9.43774510556229    4.66811203989075   -1.77792407064479
H         8.18792179958829    3.90287994183407   -0.78956754635672
C        10.72771263695602    6.96800297528534   -0.77401764918672
H        11.74900587248334    6.73067166544665   -1.07973651968558
H        10.69018057481351    8.02294505170519   -0.49626678003859
H        10.07849151506848    6.82000878054379   -1.63459977418629
C        11.89685458391350    7.03117288466149    2.14615333753991
H        12.63364395429085    6.22671699418152    2.10245486934889
H        11.89832915306911    7.44005207550480    3.15540232033444
H        12.20687357127678    7.79868720812848    1.43989649288174

