65
CSD_code = BUQGEB | q = 0 | S = 0 | Stoichiometry = C29H27MoO7P | MND = 6
C        -2.01875095517248    2.06880087193026    2.06389249369681
C        -2.11650899156108    0.55998562581458    2.07406766480411
C        -3.35827082758444    0.15052349670458    2.31777399810482
C        -4.33511312506889    1.31022460639661    2.43230530740336
C        -3.38275121165894    2.53727037497826    2.66295133363377
C        -0.75844363911561    2.57150043985393    2.75824317579240
H         0.09927732692460    2.31573694909739    2.14141951322382
H        -0.64483294669775    2.10566332312018    3.73281287677148
H        -0.78237324837198    3.65124453934199    2.87388352830661
C        -0.90303605338943   -0.25632798774997    1.78884082154855
H        -0.23976996138271   -0.28020673974503    2.65322214815865
H        -0.36115644260501    0.18444838993696    0.95382835515251
H        -1.16784061176113   -1.27818409097843    1.53266775034674
C        -3.82518379109008   -1.26064073294089    2.45610427044823
H        -3.13170525104889   -1.94759412522169    1.97953736085447
H        -4.80829271807399   -1.40224248630300    2.01197366076453
H        -3.89243605806872   -1.52620697497139    3.51154856754470
C        -5.33858537733740    1.08884027846666    3.56281625491853
H        -4.82343289221715    0.91611267773212    4.50251210505266
H        -5.94452876451571    0.21256476142661    3.35718401273943
H        -6.00336397687451    1.94238121128658    3.67221940388579
C        -3.25231812444631    2.89622836199764    4.14088112762194
H        -4.21081580502691    3.20837558092912    4.54542700376926
H        -2.56086689211937    3.72500696943878    4.26371308840954
H        -2.88347386286757    2.04818800805312    4.71259196322728
C        -5.09704734096933    1.35498133572575    1.05344600075574
H        -5.25760402274163    0.30590595617714    0.76611948608377
C        -6.46960641173890    2.00472807128485    1.01484328278079
C        -7.57938629356347    1.29221892074512    1.46236182215978
H        -7.45983470507582    0.28764968976253    1.83925947093429
C        -8.84715080922689    1.84127550129801    1.41066798806777
H        -9.69000519342027    1.27119021391673    1.77221546368915
C        -9.03878455739011    3.10522053712060    0.87976414818106
H       -10.02834668901879    3.53406584738505    0.83570596647354
C        -7.95351105327500    3.79849647625871    0.37566546970569
H        -8.08897913400825    4.76855135469721   -0.07844362127584
C        -6.68395418313446    3.25034633096041    0.43657352190885
H        -5.86390553934031    3.80223540134910   -0.00740281230265
C        -3.86687565690094    3.74430366753540    1.84171552436818
H        -4.95353741059836    3.80065346900886    1.92463967357003
C        -3.31599898353112    5.09493953538573    2.18973041474202
C        -4.06714750759140    5.94404945183634    2.99749256775415
H        -5.02389954560201    5.61118257176714    3.37631650470072
C        -3.61003103710255    7.21008049432540    3.31287188435917
H        -4.20722894463962    7.85472483590549    3.94077317204666
C        -2.39639457465934    7.65434149706866    2.81618731821919
H        -2.04190910459413    8.64569596392063    3.05501459607817
C        -1.64651315140884    6.82360008950974    2.00283575959975
H        -0.70370679746894    7.16350308141483    1.60035267324541
C        -2.10278930052605    5.55396994670830    1.69182075583121
H        -1.50562650644877    4.91896071138604    1.05410809173226
C        -2.73211018802964    5.02395110598838   -3.69685010935736
C        -2.49117246950428    2.44213598385682   -2.52089603934089
C        -4.86999031531874    3.80038668509500   -2.45011604040765
C        -3.58698273483738    5.97672402617385   -1.19710901711360
C        -1.14922830977879    4.59483381436077   -1.47127352648474
Mo       -3.02550109104536    4.24026638354152   -1.93118338124786
O        -1.95207990664310    2.53571035328391    0.69326638252567
O        -4.28170343113727    1.86796928999057    0.00541546317612
O        -2.55660465159451    5.46043866732956   -4.73524036705659
O        -2.19151731924532    1.38083633058818   -2.79917185514972
O        -5.91270616749599    3.51085453638697   -2.80510108803688
O        -3.92961850010736    6.96293364566541   -0.73796429311493
O        -0.04664756400160    4.76143895280669   -1.23947983929586
P        -3.33228869616020    3.15695594387976    0.16655080131847

