58
CSD_code = BUQGAX | q = 0 | S = 0 | Stoichiometry = C24H25MoO7P | MND = 6
C         3.68102193934882    3.23370427973866    7.13964577463212
C         3.04413633265093    2.70414300313520    5.82107914260431
C         2.67010461030156    1.21283307819266    5.96415084792052
H         3.60795629316012    0.66805231768083    6.15072150251574
C         5.08174215485469    2.74123120592142    7.46202632088824
H         5.11282648851328    1.65417040151780    7.45968964429706
H         5.34958623548298    3.08005447456181    8.45944304547109
H         5.80345178207414    3.12809628250495    6.74912149693054
C         4.04845980419041    2.85280300083151    4.67570661078592
H         4.44275112547382    3.86582449412549    4.65446896953901
H         3.57777317038630    2.64734044774979    3.71989356797475
H         4.87442867522190    2.15754551725050    4.80088983859013
C         1.99706530506114    0.56263507072860    4.75888012945648
H         1.01899597571985    0.99680527628649    4.57640478945770
H         1.85341827792475   -0.49214815497624    4.98166886695696
H         2.61207337543043    0.65006332098505    3.86909580456635
C         1.86688344394187    3.72048200629471    5.67119860975144
C         0.71712859893042    3.28076490273317    6.62039571419546
H         0.05388995510197    2.59672007855719    6.07211200968954
C         1.32043667087178    3.91033632679230    4.25713449275301
H         0.44885080496069    4.55977465180105    4.29473180432430
H         1.02016722271233    2.96709259021961    3.81119085121155
H         2.06167432528451    4.37690768482691    3.61411357808817
C        -0.11178429504848    4.38742981824618    7.19217407925748
C         0.32402108627669    5.08093289980787    8.31636303527507
H         1.28548287148271    4.84430805536178    8.74993833910407
C        -0.45169952819569    6.08547795659515    8.86684874738135
H        -0.10266848368905    6.61177319817817    9.74288431312587
C        -1.67478212176173    6.40690406642739    8.30351770802708
H        -2.28423506199618    7.18530263835408    8.73743200488875
C        -2.11886029793042    5.71921581063615    7.18726076711329
H        -3.07587549184410    5.95953282789270    6.74821355302764
C        -1.34400285974207    4.71361546084595    6.63719647187868
H        -1.70535914650616    4.16870002388630    5.77554716033798
C         3.53838809712565    4.73639631616608    6.98641382950805
C         2.50390860162943    5.00383084199797    6.19276892655265
C         4.40187958152327    5.66318675326112    7.76758364105679
H         4.38178589487807    5.38143292819492    8.81976774674207
H         4.06042353147266    6.68972308163976    7.67314747432957
H         5.43429448861545    5.60842121206455    7.42401956457813
C         1.98697305215982    6.34328613229164    5.79176070121455
H         2.33309539159714    6.59524577563192    4.78907404198546
H         2.33655603037626    7.11222859910124    6.47462842722211
H         0.90002445520466    6.35568702376118    5.78817991912805
C        -0.59203851586851    0.93080795661225   11.57564632700355
C        -0.46834466451242    0.10570367387082    8.87547419617818
C         1.89836647695507    0.52069734461870   10.24822514383897
C         1.08213421481101    3.08543765771966   10.90992268935186
C        -1.32769618094066    2.65838362659998    9.56333826144129
O         2.85269400537033    2.87796186643672    8.28206037336262
O         1.82970400217112    0.95292140090085    7.10157393228369
O        -1.08705492339750    0.53469059522976   12.52285672626437
O        -0.86060797085971   -0.73551694767976    8.21662767902361
O         2.86514075357945   -0.06982973433268   10.35426973418428
O         1.57496808519884    3.96815245155039   11.43397426016280
O        -2.27713636407418    3.25604882704586    9.36268314250722
P         1.42125096277184    2.23178791205793    7.98559973948918
Mo        0.27073175555978    1.57998969156082    9.94486393058494

