106
CSD_code = BUQHIF | q = 0 | S = 0 | Stoichiometry = C42H54N9Y | MND = 6
Y         4.59402207029191    1.62954829285712    4.52821852193729
N         6.06783604553935    0.70296651102202    3.12791859135208
N         5.74202287262228    2.89468751137782    5.96508872588583
N         3.32393297571837    3.01649245560690    3.32169975810371
C         6.88415809519208    0.68310151192719    2.01243006146748
C         3.03352945996847    4.21627535646583    2.69915571764449
C         6.78815859627178    3.71941495645909    6.33423258763419
N         6.90770119276612    1.47304148107876    1.01585249934757
N         3.59933379976064    5.34831856216042    2.82496035259352
N         7.89407302166848    3.93156231831991    5.74278646721790
C         1.90534040844547    3.98808123554641    1.78165072552718
C         7.80909972785276   -0.45379239109262    2.14923925499201
C         6.41536140161831    4.38707091951734    7.59195044858167
N         5.78134893996902   -0.34714823192387    5.10457035161067
N         3.64408789032061    2.34479118285014    6.58846766453753
N         2.72565805610514    0.84067631849706    3.29090153540155
C         7.11221468828676    5.28349527516235    8.37517887982981
H         8.09748293045355    5.60621017087287    8.07943753645051
C         1.22844991748588    4.86022912516939    0.95467986183782
H         1.52314441088078    5.89615480248381    0.90590630557387
C         8.79641408447635   -0.91650353335025    1.30440144252370
H         8.99330993491375   -0.40745029658444    0.37464800453923
C         9.50922290286286   -2.04172829030673    1.69229265718642
H        10.29109223439872   -2.42944467353223    1.05572586213526
C         0.17313516181002    4.35947497889525    0.20633216181675
H        -0.37681372025734    5.01419890024395   -0.45391658273315
C         6.50502739943788    5.74245073645906    9.53514258769275
H         7.02114553690899    6.44763770184213   10.17009570834448
C        -0.19101105371121    3.02467522457765    0.30211059520806
H        -1.02258398254892    2.65762055840904   -0.28189597242256
C         9.22314796513317   -2.68246923475394    2.88852199996523
H         9.78302640330272   -3.56364135274633    3.16650885789193
C         5.24110051093796    5.29921182008641    9.89471639369838
H         4.79038859941166    5.66177861117718   10.80725035949442
C         0.48833375367654    2.14624349617666    1.13596785451678
H         0.16602698644929    1.11873953498378    1.19672206308588
C         8.22757918774578   -2.21905331429623    3.73869337996047
H         8.02258120760627   -2.75292956722761    4.65319783986790
C         4.53987177779274    4.39419595586322    9.10864607463403
H         3.56548688059233    4.06029838193026    9.42860976040602
C         5.12930141739606    3.94300246476608    7.93964525241052
C         1.55513105371323    2.63136116590381    1.87359015859741
C         7.52218622909304   -1.08594127056840    3.36989650603401
C         2.50464277026241    2.04648185806180    2.83986648105409
C         6.42939871558875   -0.29792324825871    3.97162668960410
C         4.72898517817018    3.01901210443915    6.86106741492845
C         4.68583756556015    5.53369207739407    3.75092263263062
H         5.23971147346893    4.58837384286172    3.92748353543325
C         5.96878824024613    2.55939318465995    0.91131401967645
H         5.62597197693824    2.90223364188317    1.90968264870541
C         8.22404324695913    3.23788068202258    4.52495994648878
H         7.31426472312202    2.96036557510596    3.95275626783592
C         5.64191596003612    6.57316674758797    3.16994963096474
H         6.05074573546702    6.21953192339892    2.22684588314442
H         6.45821465999317    6.75633033474188    3.86469968196712
H         5.10714972587340    7.50206435990453    2.98903011199831
C         9.09365314468493    4.15567162275069    3.66866334860520
H         8.54645219159446    5.06017509283661    3.41566161812335
H         9.38125314051858    3.64634562193728    2.75186443486948
H         9.98697120205774    4.43469049753332    4.22151735762358
C         4.74423606080474    2.08226170561192    0.12220885984498
H         4.24628984640799    1.27672920537890    0.66091420300277
H         5.05656476282632    1.71239867116633   -0.85214093872667
H         4.04263916449568    2.90278884067068   -0.01308075530364
C         6.65342553536503    3.71891704261519    0.19106842198034
H         7.51355527169349    4.05849908569952    0.76251005068081
H         5.95705806476281    4.54562266709514    0.07177506568012
H         6.99527259899015    3.39147917771548   -0.78745356092385
C         8.97969180323612    1.95086031331235    4.87530152993049
H         8.33800357860270    1.29104334158251    5.45843069087817
H         9.86267171178184    2.19198928313505    5.46350610958889
H         9.28344985740699    1.43534479151324    3.96650598342194
C         4.11702602666833    6.01373453018395    5.09098761090974
H         3.46339388541254    5.25025293458338    5.51167122023036
H         3.54125901214092    6.92444194710750    4.94010366506120
H         4.92528646515982    6.21172319703517    5.79188024733832
C         2.43863832181330    2.45450495617738    7.38585162102544
H         2.34525027866608    3.47165749829143    7.79461678133121
C         6.12468615428761   -1.28120779900143    6.15836856251273
H         7.20523111558941   -1.48720341741118    6.14626756786542
C         5.35651919302562   -2.59660117110228    5.98569933379915
H         5.55263706190202   -3.02688063103306    5.00569987662377
H         4.28744348168154   -2.41282078239550    6.07573977604115
H         5.65318278717264   -3.31037875711903    6.75088565443605
C         2.45945046502433    1.44541437431828    8.53985665038340
H         3.34949058231741    1.58235395839740    9.15054368553182
H         2.46476858530759    0.43204946956842    8.14268524430756
H         1.57864345580600    1.56951497391203    9.16579867301200
C         1.24565717926410    2.19267000735885    6.46604336541070
H         1.21235381548259    2.93929078823117    5.67392957974143
H         0.31450222654692    2.23282637859983    7.02728822052420
H         1.34702103697842    1.20926540996843    6.00826088502817
C         5.77360800045163   -0.62588514610902    7.49461512750176
H         6.35432028235060    0.28559131722072    7.62892220846914
H         5.98542011967395   -1.30297591900741    8.31947347775250
H         4.71601817006978   -0.36470459199542    7.50642230034310
C         2.02261065054498   -0.32152289777747    2.78521635496644
H         1.76157960110397   -0.17666272620870    1.72631683116512
C         2.96809160426953   -1.51907777197675    2.88985581070042
H         3.85689782903059   -1.34903788155142    2.28379826255086
H         2.47533308191039   -2.42572886378220    2.54520342611564
H         3.27790821901301   -1.65031912900397    3.92613912839766
C         0.74350483680352   -0.57447856988513    3.59166169482471
H         0.10356566591797    0.30559113307388    3.57907972441827
H         0.99907439864857   -0.80203832584440    4.62504262939458
H         0.19511153070546   -1.41628389948311    3.17508862624035

