87
CSD_code = BUQVUF | q = 0 | S = 0 | Stoichiometry = C35H40FeN4O3P4 | MND = 6
Fe        4.07593421222366    1.44791404907672    5.62950241994706
C         7.40681289546159    1.42242274061844    6.38734573896531
H         7.28371924363326    0.39111573922045    6.74286621673073
H         8.40867197717400    1.53828521729836    5.95354538695082
C         6.43015078319609    3.62168917320564    4.99770534470444
H         7.38757887176054    3.80806987922457    4.49230254891601
H         5.61219318884609    4.05771582188082    4.41497941592843
C         5.17538359190412    4.30136607641279    6.94850118115044
H         4.45154894637093    4.77385158435383    6.27745095687566
H         5.26573399428393    4.89912782168207    7.86593689055856
C         6.11235316720132    2.11706147185318    8.31765240223766
H         6.20220520800406    2.73843885415032    9.21732107679816
H         6.06186545809860    1.06476948574177    8.61785503987321
C         7.49103798800203    3.69756505365798    7.14888796628536
H         7.53088196472570    4.29281460607978    8.06695929456793
H         8.45093324355834    3.78419763070469    6.62889766082857
N         7.30652314567667    2.30948039873422    7.52359075907571
N         6.46223702673208    4.24902098146365    6.29537847898573
C         4.20983158935360   -0.94601177370347    3.16516528823836
H         3.74126403123236   -1.26577520628152    2.22611729966313
H         5.25520568809103   -0.68469292258267    2.96804518417024
C         1.71934273112312   -0.40568905429844    4.17937263013069
H         1.02004699011599    0.25296766093480    4.70344456902181
H         1.27609846555413   -0.72225718923251    3.22517303164784
C         4.92011966659352   -1.84666154960158    5.30266975335994
H         5.93665433144276   -1.52614473613536    5.03996732927493
H         4.97027013015011   -2.79974967786888    5.84528701080920
C         2.40412279202918   -1.26915368048528    6.33043061225413
H         2.36868611117738   -2.18854696225232    6.93069539179103
H         1.73060804111612   -0.52011614398038    6.75941210302469
C         2.83237060315734   -2.52817968680555    4.33295886373643
H         2.38074550337685   -2.79540810652450    3.37203166851060
H         2.89148669415613   -3.42546272817527    4.95800239506286
N         4.18307956621628   -2.06717410583335    4.07946008844696
N         1.96734494614901   -1.57420620906015    4.99079647275374
P         6.12236381440798    1.77946706674212    5.07788316802777
C         6.94500717927676    1.25388363473443    3.54821358458123
C         7.85011880035747    0.19809671497660    3.49069250072118
H         8.12634612237655   -0.32861686731835    4.39393139663388
C         8.39770083601487   -0.17776298340620    2.27678735093954
H         9.10159109900479   -0.99638099034756    2.23577728951276
C         8.04510775961857    0.49163650030858    1.11602831590667
H         8.47792877835627    0.19662217061389    0.17165992387762
C         7.13250932437036    1.53399009376714    1.16621820493876
H         6.85104897226579    2.05154847755517    0.26076051801619
C         6.57621595687787    1.90859287025574    2.37505935260703
H         5.84243360337877    2.70178733590328    2.42511741829305
P         4.55885392830951    2.59949047185961    7.39988741027447
C         3.38031035515287    2.98605061763497    8.71907239262359
C         2.34121482901992    3.87407332886022    8.44894386085759
H         2.24537405508828    4.31699187877630    7.46905180566872
C         1.40960917952958    4.16517892131464    9.42843960245366
H         0.60120455712108    4.84600137192742    9.20813528149771
C         1.50723301765677    3.58078459056891   10.68073550824185
H         0.77667473593823    3.80806117438868   11.44347732840287
C         2.54055413801008    2.69957125310176   10.95297447951294
H         2.61974908232204    2.24201447101187   11.92913739505804
C         3.47331350490258    2.39737491928564    9.97732846774812
H         4.27026568957001    1.70048543661042   10.19306825309367
P         3.28957180277578    0.53810981506514    3.82758066008536
C         2.82643769781917    1.45926182853371    2.33925352428035
C         3.57536695348205    1.38012188067884    1.16824645626764
H         4.44963729749488    0.74679045394610    1.12467932424971
C         3.20417312509782    2.11809175934545    0.05877530175657
H         3.78738352474429    2.05010350366640   -0.84884564571929
C         2.09336737754904    2.94382863209592    0.11024954746799
H         1.81176440256905    3.52426783628929   -0.75631875566142
C         1.34837126216606    3.02787372612053    1.27527195093153
H         0.48675537520775    3.67658838734198    1.32365462763958
C         1.70790877039170    2.28865832057558    2.38716271933094
H         1.13469226382447    2.37624880497417    3.29782888610869
P         4.13035006929836   -0.55444653008861    6.39733012357580
C         4.62361310798707   -1.07599919596260    8.06383043356835
C         3.76192760974223   -0.74822575203852    9.10832470099970
H         2.84324353873494   -0.22255104682898    8.88519181437822
C         4.09040037051625   -1.07933098425017   10.40965676518390
H         3.41422254632260   -0.83227378003811   11.21503587692590
C         5.28867681552954   -1.72169526075961   10.68044337726968
H         5.54716874422888   -1.97830962461515   11.69706249823816
C         6.15967467371626   -2.02884610066173    9.64762147776425
H         7.09781495340641   -2.52064892969487    9.86037547647088
C         5.83255007808022   -1.70691738684078    8.34222036027235
H         6.51633248703281   -1.94623320139466    7.53929885404190
C         2.21590742631050    2.92693095384352    5.43791934792959
O         3.38982980908893    3.12724269722775    4.89179055598450
O         2.20847220886004    1.79871519418556    6.10384351667572
O         1.26791360120734    3.68115702668631    5.34052694322614

