88
CSD_code = BUQVEP | q = 0 | S = 0 | Stoichiometry = C34H40FeN4O4P4S | MND = 6
Fe       -1.19477500645100    8.40734913019206    5.89339163698151
S        -1.60604387059092    5.99641402611223    5.93617253263650
P        -0.09643011212560    8.40214879479665    4.00204366701474
P         0.43707537247464    9.61519942359465    6.63731300162184
O        -0.26484206710119    6.65258229024115    6.12829719374765
O        -1.50135462498886    4.69532492819093    5.35753204746513
N         2.46294627366317    8.59368943092823    5.01897002376376
N         1.43840607829011   10.67500295626561    4.25065232532915
C        -0.58065979979861    7.47916620251585    2.51962603188173
C        -0.81145350953335    8.08218632068472    1.28643799229309
H        -0.73228869967497    9.15375964386881    1.17742237235223
C        -1.16105169395705    7.30917522413576    0.19297621236753
H        -1.33473089446959    7.78377010621925   -0.76254062134956
C        -1.29249808859443    5.93661677485796    0.32177665545813
H        -1.57266504616424    5.33895300619832   -0.53348391093222
C        -1.07030146134396    5.33430649876592    1.55001160298420
H        -1.18121195447772    4.26639925022990    1.66105111225601
C        -0.71040555805951    6.09736185230612    2.64606759984335
H        -0.56787954934912    5.62863271079621    3.60829959282967
C         1.63414194388823    7.72738398993174    4.21646864771873
H         1.56390513867236    6.74648511367395    4.69306558617911
H         2.09582781678987    7.61957543694706    3.22559426523693
C         0.49540977401260   10.05036969788551    3.34810331610076
H         1.00603094836231    9.90177230199560    2.39014376109736
H        -0.34772154144862   10.73210482421994    3.19883092195571
C         2.64630054676693    9.89196429106907    4.40880735170162
H         3.08803584036110    9.74542039404024    3.41794303091883
H         3.34500621399335   10.46602086166398    5.02593765976616
C         2.04549322633961    8.68485969180371    6.39454697838878
H         2.84074636015934    9.18253460850941    6.96544286903568
H         1.89351037436386    7.67222615817600    6.77785381097469
C         0.87382416153612   11.06336242238574    5.52005089339987
H        -0.03384406209809   11.64753228816170    5.32312394524850
H         1.60825562807438   11.69948103643866    6.02975076560161
C         0.77162665654857   10.35504934333263    8.27525353894501
C         1.26271633366182    9.54447499343555    9.29467184494242
H         1.46950868693479    8.50541382039546    9.09337741866932
C         1.47538213036422   10.05912394175959   10.56025710473027
H         1.84963600739660    9.41638189404148   11.34307636657183
C         1.20541930642804   11.39155493382824   10.82355063122516
H         1.36960497836501   11.79385826370382   11.81191606851027
C         0.72059365627980   12.20770922003463    9.81458578602469
H         0.50804238089194   13.24760476258578   10.01498070976301
C         0.49835553968687   11.69387083392750    8.55017531758327
H         0.10434012384895   12.33678270719142    7.77573382047056
P        -2.32863169814363    8.15205728265951    7.77527420528550
P        -2.71180685805756    9.84396855405225    5.44277963628747
O        -2.31578448538371    6.98993431637740    5.05273438184661
O        -2.29600318541874    5.99935920648587    7.23993617930615
N        -4.85132005755933    8.96130514044822    6.99550790413830
N        -3.48629121476459   10.78271282784250    7.87665680628842
C        -1.68065084310781    7.40434012206102    9.30505354453908
C        -2.37137758002018    7.39198299775968   10.51023042878793
H        -3.36379990624413    7.81499752655754   10.58271952876990
C        -1.80220481424347    6.81643192909399   11.63324452599377
H        -2.34986781302773    6.80549405461148   12.56513075813699
C        -0.54132501126744    6.24999106612353   11.56562166268497
H        -0.10223634069839    5.80061290605839   12.44468988146111
C         0.14579028551938    6.24518712187061   10.36252967678989
H         1.12229945172417    5.78508551673674   10.30178335967498
C        -0.42215354458565    6.81772814417293    9.23997781959884
H         0.07247952595103    6.78245651233324    8.28033166782928
C        -4.16385452939570    7.86907837791993    7.64282253256488
H        -4.33098109908792    6.94953325576378    7.07763171632759
H        -4.57136908832540    7.73794891820173    8.65208664225847
C        -2.57544363690373    9.88037877258179    8.55506858846488
H        -2.96041610892961    9.75326196988939    9.57287872023604
H        -1.60607846481626   10.37743514029497    8.63786653155941
C        -4.80119264427950   10.19372970124688    7.75148086073044
H        -5.17835706355936    9.99254912654945    8.75892880909740
H        -5.46242751661247   10.92077826313542    7.26654512305096
C        -4.43720399664749    9.14503055055738    5.63075438278381
H        -5.14063445148463    9.83211834259927    5.13771826444015
H        -4.44843585571313    8.17940342025682    5.11738578794926
C        -2.97924743845918   11.26412041487866    6.61346268042838
H        -2.03422517852282   11.78745700223454    6.79955734407513
H        -3.70706066408706   11.96878696187584    6.19248500348087
C        -2.90515585999704   10.51892252715710    3.77085871192419
C        -3.17435298135023    9.57001894446900    2.78640643194607
H        -3.21177293854144    8.52679542521988    3.07153493442169
C        -3.37754285170399    9.96709830223900    1.47836558351012
H        -3.60261012078538    9.23180639491163    0.72023901454544
C        -3.28455095040708   11.30908159564681    1.14088157594669
H        -3.44111673781640   11.62132713454237    0.11892846875879
C        -2.98396714428101   12.25133194179018    2.11103793570160
H        -2.89945192954357   13.29442332539382    1.84268844022192
C        -2.79632258701599   11.86204857140442    3.42655427501809
H        -2.56362803034126   12.60003399195299    4.18147019382376

