89
CSD_code = BUQVOZ | q = 0 | S = 0 | Stoichiometry = C36H40FeN6P4S2 | MND = 6
Fe        0.00043956363647   12.87680938679619    4.01913743533869
S         3.27195843577708   13.11194064550835    7.30987253900428
P         1.25260331734662   14.30373135197577    2.95092018319855
P         0.97740788272547   11.44747109700963    2.70148421587770
N         1.38745545709109   12.87727473430891    5.30814096431140
N         3.37193708128683   12.67824277032060    2.18353561928197
N         1.61443998276096   13.06166352303585    0.53176708597899
C         2.18508166217351   12.98592255107947    6.16589848572806
C         3.06716721075352   13.84907406234419    2.96524208458502
H         3.62148397394791   14.70138365928929    2.54773649715694
H         3.39286887584211   13.69527581785368    3.99799024844906
C         1.10500229522437   14.29256764714376    1.09584014787601
H         0.05372846120002   14.40780411982265    0.80940475661661
H         1.68831183661338   15.12357666530869    0.67944044129043
C         3.02626247007462   12.86887703645293    0.79005643915346
H         3.35703195080936   11.98941023063337    0.22802170818406
H         3.56817219877598   13.74659949294713    0.42321373493609
C         0.85121547469461   11.89399056024388    0.88894655956326
H         1.23290549994930   11.03814334805501    0.31443320243805
H        -0.19972460450191   12.04647221123444    0.62641148928744
C         2.83786368266879   11.44969952665052    2.73037399824160
H         3.18855418145339   11.33716771236039    3.76220892887926
H         3.21629245061407   10.61694216735543    2.12446553890862
C         1.42617291428041   16.03803231040477    3.44317528369829
C         1.18706598362525   17.12437772723306    2.61040345973806
H         0.80941456103291   16.97474577228098    1.60960596306130
C         1.41845730730558   18.40755089390845    3.07450771809843
H         1.23367114119237   19.25079659291283    2.42516420178578
C         1.88515038272596   18.61422958205571    4.36119931447112
H         2.07237857217079   19.61830960220594    4.71178973638804
C         2.10176514865001   17.53395886141919    5.20192275149670
H         2.45522837071680   17.69232944828014    6.21006807587336
C         1.86663313103840   16.25122120410642    4.74816958700175
H         2.02032250322838   15.40038333037724    5.39777647089724
C         0.44133728771270    9.72334045917639    2.55938292196268
C        -0.91616708087250    9.54981566843773    2.29654632916881
H        -1.55616548438989   10.42136174705084    2.25477948080332
C        -1.42978209828135    8.28419604659710    2.09503013418227
H        -2.48012308541880    8.15551776603579    1.87913542453012
C        -0.59408905241225    7.18095210855952    2.16969698520782
H        -0.99176326030252    6.18966308031934    2.01075056854749
C         0.74942525500827    7.34795564452311    2.45765495158454
H         1.39690348271573    6.48641782219682    2.53113645501645
C         1.27287773739904    8.61443439869432    2.65197879942351
H         2.31989977022812    8.73152463956552    2.88956638402072
S        -3.27477592164047   13.10716156076372    0.73126974103189
P        -1.25151031676825   14.30361610021513    5.08796768667217
P        -0.97697927699775   11.44716708534137    5.33640543933402
N        -1.38640703304376   12.87874902819101    2.73005025202947
N        -3.37120555269862   12.67831216117936    5.85496554679788
N        -1.61360612386391   13.06091448683761    7.50671781156220
C        -2.18600246396249   12.98442650290172    1.87381260575375
C        -3.06618098094199   13.84928147563700    5.07359315328389
H        -3.62039961983381   14.70157370376300    5.49128276716521
H        -3.39188437449557   13.69579733725614    4.04080078742961
C        -1.10393524679201   14.29190412915296    6.94305215430806
H        -0.05262494984051   14.40680437713678    7.22947996817340
H        -1.68702135121996   15.12289440751076    7.35980211641655
C        -3.02547741789633   12.86851350074160    7.24848110263858
H        -3.35639590403184   11.98896971081236    7.81030869234113
H        -3.56717018843644   13.74627403307597    7.61555217448503
C        -0.85073700601217   11.89316839889971    7.14910966109926
H        -1.23256769739478   11.03725446220117    7.72344477841630
H         0.20026388042487   12.04528555411573    7.41158938456261
C        -2.83745636846027   11.44978721494313    5.30777806611558
H        -3.18827989253297   11.33757852548061    4.27595754408044
H        -3.21606022263113   10.61698014085036    5.91351067834386
C        -1.42556460951804   16.03812425719070    4.59648886061229
C        -1.18687069855776   17.12411727356220    5.42984710703196
H        -0.80876115659603   16.97411770749507    6.43041330218572
C        -1.41918604937661   18.40743920177825    4.96660138597782
H        -1.23475617452668   19.25039211464041    5.61642771636157
C        -1.88642390945489   18.61461980580093    3.68018816632244
H        -2.07450581966718   19.61879347768616    3.33031845071314
C        -2.10257472426144   17.53473103512624    2.83885127573027
H        -2.45649883012348   17.69353388793176    1.83093344065006
C        -1.86652372941760   16.25184812857200    3.29174127000709
H        -2.01987223693333   15.40129192309889    2.64167572750303
C        -0.44143304133798    9.72287596973652    5.47923902079416
C         0.91609587751274    9.54920458230596    5.74188103894085
H         1.55640718889757   10.42060016140338    5.78197945800818
C         1.42927814703507    8.28372206826272    5.94535245272941
H         2.47961360488851    8.15496836118822    6.16119735631599
C         0.59309620826663    7.18070366867941    5.87293796226788
H         0.99036120105746    6.18954111780178    6.03371374245662
C        -0.75041366453457    7.34777464495103    5.58499213709470
H        -1.39827310305380    6.48638894776092    5.51321500582406
C        -1.27342402743726    8.61414226901989    5.38865914445176
H        -2.32042925204720    8.73120047495050    5.15103056473082

