67
CSD_code = BUQXUG | q = 0 | S = 0 | Stoichiometry = C10H36B18N2Zr | MND = 12
Zr       12.41905307921603    0.74126038919833    1.48526623457340
N        10.66747244873720   -1.41793991602130    2.23304946130912
N        13.76539722191225    1.09940882079173    4.01824396714545
C        12.50562967923183   -0.75363586594536   -0.58335291851554
H        11.51487970083165   -0.63197338873983   -1.04227601846540
C        12.59209250006992   -1.64540060482926    0.67840718011937
C        11.28859050623357   -2.25373643531628    1.16962509226473
H        11.44957833826995   -3.27530614030214    1.54739499041299
H        10.57590713911983   -2.33777555526053    0.33860043841907
C         9.21066323560617   -1.36794262336921    2.07573762451187
H         8.75450791139052   -2.35632822765005    2.22666356698327
H         8.94672476888808   -1.01091654706488    1.08248658883314
H         8.79403063768122   -0.67342081514395    2.80386813963247
C        10.93678312435087   -2.00585073347551    3.54770596124834
H        10.51852322250487   -1.36894945583385    4.32668456262860
H        12.00865297384700   -2.10917155829061    3.70204884681759
H        10.47594914281110   -3.00029084397135    3.64264297394520
C        12.17600046675013    2.72929983026685    3.01889613785289
C        12.58570366365158    3.28466691838641    1.63333326414732
H        13.65257007083014    3.49182773341561    1.47361156216829
C        13.29874182925502    2.51212878298485    4.02125893483157
H        14.15316066008481    3.15550460959084    3.77260073158970
H        12.97998608118644    2.79491549668367    5.03674984571712
C        13.17600025561206    0.37846641541857    5.14920368130681
H        13.51455886553446    0.79574677405333    6.10915317757974
H        13.47949685704195   -0.66761517006771    5.11481679540454
H        12.09071218974857    0.44140159627407    5.11310716164383
C        15.22110034069442    1.02893411923524    4.17757545819844
H        15.71791946173245    1.60737577662596    3.40174305800607
H        15.54356585655890   -0.00677667989913    4.08143846244608
H        15.53839249110101    1.40934045264920    5.15854501859001
B        13.15642008328050   -2.36200685728657   -0.80176331608142
H        12.46107305793628   -3.17639960645566   -1.29389523139707
B        13.87440047569078   -1.01002647676517   -1.64100974509058
H        13.71265628860110   -0.91652839194520   -2.80372266149085
B        13.65184539686566    0.41992889856684   -0.59517701875450
H        13.48376765295980    1.40261814167895   -1.24083991734927
B        14.04872593987447   -2.60221086807369    0.70155791475755
H        13.99441013596168   -3.65785819646859    1.22808395571364
B        14.89508848074489   -2.17823392670538   -0.78071323273512
H        15.60456873141241   -2.93087143568987   -1.34240241534508
B        15.23406813964629   -0.42243251211647   -0.68466607859650
H        16.17550145939458    0.06849428482439   -1.19943955830535
B        14.58314632378286    0.22825791603251    0.85793028988747
H        15.22401357219281    1.11983409140613    1.35684391366247
B        13.81226958742031   -1.12974576711608    1.68012364542960
H        13.73549582594471   -1.37397454894656    2.85137345717916
B        15.33753544604634   -1.39926343886311    0.78262622313040
H        16.35129263963698   -1.63802089922541    1.34109954280958
B        11.83939269977676    4.41243343957040    2.74070868674257
H        12.53530513973960    5.18857038079149    3.29044506488210
B        11.42659903742332    4.45395639493468    1.04469927278521
H        11.81617694026667    5.35242738490126    0.39067893279985
B        11.58029654382962    2.78117890933506    0.43867451108267
H        11.96119070370395    2.76421651138093   -0.68629971454056
B        10.65742506366477    3.39059599066426    3.56079248789196
H        10.50887971704473    3.52091571091928    4.72509620717664
B        10.15422148668718    4.48630601871904    2.28008934465250
H         9.49702844306912    5.44095593508778    2.48517722367208
B         9.97158216560397    3.48850767597910    0.80402688674605
H         9.19698491852629    3.75303784112817   -0.04586178076815
B        10.37512168524125    1.77931350099572    1.18449547568477
H         9.73833681967725    0.94987969399199    0.58415687703810
B        10.83987342041078    1.74978188470764    2.88620234651151
H        10.66364037820538    0.89904865909396    3.71202487100822
B         9.49693829752234    2.81115593167548    2.36359312021578
H         8.37708258169825    2.58781057491411    2.66816043779496

