79
CSD_code = BUQYET | q = 0 | S = 0 | Stoichiometry = C34H30N6O8Zn | MND = 6
Zn        4.31882419716093    8.77898348242032    7.14749088015087
O         3.54411788113310    7.41768411886428    5.86642618412186
O         8.43139484571580    0.38071158996644    4.92464054367470
N         7.01215833082892    2.54743760625243    5.24493239754190
N         5.49577677154580    9.37830087030461    8.78278177352090
O         5.42276121644293    7.05847746212042    6.91643423901562
N         7.86500572013021    2.83074632707092    6.17242975099901
C         5.79402196921240    4.59998672891508    5.64602674955934
H         6.49120127983787    4.88765227287606    6.41588156946844
C         3.82538913406305    5.07069143555126    4.33967474310610
H         3.00735139930308    5.73696467753741    4.11609361924982
C         4.72754888341046    5.42935163084784    5.33713452428453
C         4.55913778313845    6.71324664931224    6.07955009448179
C         5.95828845423836    3.40241062976403    4.95633691004213
C         5.05454670755949    3.04392031962419    3.95614686786190
H         5.18988329236094    2.11388969807972    3.42307647397911
C         3.99554104666425    3.88037429505257    3.65361192732545
H         3.30014194506110    3.60016657669030    2.87674483972738
C         6.73100678123978    9.82834489051052    8.67509069971372
H         7.04494780451443   10.09087945104920    7.67519125343134
C         8.88126863961185    2.07111932113426    6.49176043936146
C        10.37598961989325    0.00983128620084    6.23066232267046
H        10.44498881558774   -0.89045040126333    5.62397534481886
H        10.30610977242267   -0.25072095144351    7.28440277314598
H        11.27251471077521    0.61414185977411    6.11231687307765
C         9.70674207306845    2.61520363918346    7.59145124162983
C         9.16938625988006    0.79347319452272    5.81609837080999
C         9.24537633517133    3.94835483842608    8.12865145737003
H         9.91048842571241    4.25853127682097    8.93021377498725
H         8.22832540628040    3.86674152593960    8.50130969475600
H         9.25126261102522    4.68994265391563    7.33491248958160
O        10.68080819335790    2.05150619728276    8.04455041022364
C         5.01298884735973    9.02501893610417    9.97351075205535
C         7.57311670157151    9.95636593917068    9.77032995269567
H         8.57752465491987   10.32834389330110    9.64759605570826
C         5.79553572410632    9.11185983150862   11.12328624100282
H         5.41098454583061    8.79827202989151   12.08036522797151
C         7.09331257773318    9.58417715125476   11.01563190686739
H         7.72026261034030    9.65488751368484   11.89209417596083
H         7.11193713867618    1.67610412820834    4.70827642534018
N         3.14207092370616    8.17950463103676    8.78287214338956
C         1.90682148474723    7.72948416172835    8.67530903952645
H         1.59271759516437    7.46709929321595    7.67542131676124
C         3.62505250493121    8.53259060675659    9.97358173511412
C         1.06488682005484    7.60129048484149    9.77066358291619
H         0.06045960579027    7.22933214529161    9.64803083975078
C         2.84269033681912    8.44556666514879   11.12346885278720
H         3.22739857059760    8.75900030900295   12.08053497803768
C         1.54489302119316    7.97327493013195   11.01594813030494
H         0.91808436216882    7.90242878512665   11.89250104571193
O         5.09343702684706   10.14041834907012    5.86649884059469
O         0.20496101307589   17.17654649296121    4.92455973162564
N         1.62461031062558   15.01010961576726    5.24492733688848
O         3.21478293689100   10.49940586011965    6.91656729807702
N         0.77166138920625   14.72654671070894    6.17225249715090
C         2.84313310078355   12.95781085115375    5.64612160503040
H         2.14590493932588   12.66996613455906    6.41586534201678
C         4.81204484983760   12.48756848863475    4.34002402580718
H         5.63024373433053   11.82146788198662    4.11651833969567
C         3.90981626073310   12.12867589430542    5.33733798455411
C         4.07840233470365   10.84479653362411    6.07974351355895
C         2.67872466435352   14.15539039067138    4.95647140318129
C         3.58253972671823   14.51411695804243    3.95643181034047
H         3.44709069938099   15.44414700079052    3.42338898623048
C         4.64175703565787   13.67789183957762    3.65400518779354
H         5.33721339475602   13.95828131484405    2.87725494292515
C        -0.24479612553492   15.48594699957209    6.49149105254335
C        -1.73994277794079   17.54691238037010    6.23025011802564
H        -1.80905985498710   18.44721242422083    5.62359736079030
H        -1.67034557391056   17.80742838678965    7.28401475389549
H        -2.63629322830845   16.94236781587126    6.11169642108632
C        -1.07026359312639   14.94166985547739    7.59109163016180
C        -0.53296191956590   16.76368434568208    5.81602204485780
C        -0.60879078384413   13.60849797178788    8.12816071205367
H        -1.27399763192594   13.29809916629914    8.92955833455546
H         0.40816176945147   13.69028119343939    8.50103528740735
H        -0.61436285361873   12.86700296894906    7.33432945315468
O        -2.04454893424154   15.50510562849582    8.04405237075341
H         1.52473375834589   15.88145395753110    4.70830797966155

