61
CSD_code = BUQZIW | q = 0 | S = 0 | Stoichiometry = C22H33MoN3Si2 | MND = 5
Mo       13.52895629308046    8.74734723869704    7.06641325830461
Si       16.66414805549107    8.31514881135135    8.41995762368248
Si       11.72903449689382   11.41124699530181    8.28142909009260
N        13.86824459175894    9.21766592800866    5.42618590366508
N        14.94613749391234    8.58725243113987    8.43932190158744
N        12.72242945568984    9.98667764785241    8.38190061153334
C        14.07328179808365    9.50328125458770    4.12615840571631
C        14.80632548104799   10.63024407173673    3.72055967627811
H        15.21451957219921   11.28015933280628    4.48350509719399
C        14.99778237811538   10.89769321780863    2.38096748530537
H        15.56446364927487   11.77002464972051    2.08652093176019
C        14.47028708345582   10.05907609793278    1.41181123437601
H        14.62328216788096   10.27396984652035    0.36474548117126
C        13.74378584776425    8.94116302777197    1.79661533873640
H        13.33046458340879    8.28425989126108    1.04408456494838
C        13.54475694691642    8.66175919975549    3.13088937612670
H        12.98031616237985    7.79417908139875    3.45454632024286
C        14.06723946802400    8.35042412650107    9.45892306540989
C        12.85081238516329    9.11658061807006    9.42801464715973
C        11.91992272772444    8.94462470503716   10.45677634038758
H        11.00887737873635    9.52505169305971   10.43352787173689
C        12.15900177400727    8.05697076636629   11.48490252599363
H        11.42908322257622    7.93802274760867   12.27184326081336
C        13.33493526367977    7.31537256692082   11.51435352344924
H        13.51355879270147    6.62331826655262   12.32389673166154
C        14.27551782286688    7.45963588097247   10.51606264473955
H        15.19186425222485    6.88766678829562   10.53877533637304
C        17.47267056731864    9.03599099729293    9.99621922827579
H        17.21883978320754   10.08486119590582   10.12156049014140
H        18.55380858767432    8.96211900948102    9.94165370447730
H        17.15090556981410    8.51433678542484   10.89231206712401
C        17.20924537491037    9.25620797463531    6.85427981619048
H        16.54541702150175    9.01586654330288    6.02305717195188
H        18.22098243342023    8.99671500338792    6.56217019640537
H        17.17702081697557   10.33185111346041    7.00381386878127
C        17.08721380130434    6.45680391390103    8.21643627845886
H        16.90109424422215    5.88242691001237    9.11944706840471
H        18.13337410951772    6.32502985765241    7.95918838706258
H        16.49319727902571    6.02002473937533    7.41703354006012
C        11.94804009408340   12.50053966623281    9.83809530536704
H        11.57692019833843   12.01085452590029   10.73309598174655
H        11.41162683162880   13.43732738134932    9.72822124790693
H        12.99486003588177   12.73704031135691   10.00671984986811
C        12.40797803600263   12.27275217057154    6.72214396627217
H        13.38343157443285   12.71539929590652    6.90390010393191
H        11.74841289250816   13.06341859398180    6.38138835177656
H        12.51614329960736   11.55060660964521    5.91211165310042
C         9.88522287667684   10.96700761253043    8.00482446910384
H         9.79107982404296   10.22285378459580    7.21733294117799
H         9.31820949534777   11.84135444248967    7.70155282389862
H         9.41165067994506   10.56724045167579    8.89697795856113
C        10.47586737526186    7.07123933960006    6.96746928983494
H         9.99487328857921    7.45361499977921    6.06581362799317
H         9.97022530734045    7.50865178223240    7.83004657418818
H        10.34223141788898    5.98708239511099    6.99949553001081
C        11.92682891414491    7.43234798226107    6.97627610756509
C        13.04455515740104    6.73106458494680    7.00881250623417
C        13.35159863256119    5.26845091930951    7.05306246004190
H        12.43345597548979    4.67592587415589    7.06774160088598
H        13.93296311849059    5.02941465924739    7.94525057523829
H        13.93872624040640    4.97726169024994    6.18070700951676

