71
CSD_code = BUQZES | q = 0 | S = 0 | Stoichiometry = C26H39MoN3Si2 | MND = 7
Mo       11.45739246370153   10.92712679285590   12.71248135226632
Si       13.98453764824670    9.60372159065608   10.95561822995737
Si        9.69388534069879   13.54379675784828   11.55254849012873
N        10.41085359375714    9.93820121165161   11.71238504970965
N        13.08544119908514   10.98841037733959   11.50575735086042
N        11.21087777749611   12.71895488796803   11.81358583408037
C         9.79817316089507    9.40944963502998   10.64847354214691
C         8.88792727432640    8.34398898098847   10.73524357557176
H         8.66044042365702    7.92938090730952   11.70829456164635
C         8.29167946060300    7.83877993862415    9.59768037076504
H         7.59198587625261    7.01893723786724    9.68069957914641
C         8.58357175286588    8.37245129473120    8.35306174335253
H         8.11423877741717    7.97124403886544    7.46727392418525
C         9.48214325158215    9.42683561516436    8.25098145635455
H         9.70982588015153    9.84450328456186    7.28017845325206
C        10.08276257830230    9.94419833382418    9.37614196628291
H        10.78708214642098   10.76668757613786    9.33131252618572
C        13.39853183608274   12.25691647521969   11.06693230687297
C        12.37101489563975   13.21342726164097   11.25081207234829
C        12.59478164955540   14.53142343120338   10.87278633358348
H        11.82414348456602   15.26833633068364   11.02957977871180
C        13.80542114497323   14.90750671384195   10.31093229317924
H        13.96488267987331   15.93760907983968   10.02747287537122
C        14.80237062364464   13.96963599153790   10.11604799236834
H        15.74520712448146   14.26126427582258    9.67683541755230
C        14.60068976333882   12.65038951809762   10.49105016913497
H        15.38488293364384   11.92472742192852   10.34862821821943
C        15.79502021460876    9.57828818534804   11.61181391607932
H        15.92921818644224   10.23735696985622   12.46548953847858
H        16.49950581051328    9.89164219952189   10.84808964935312
H        16.08252383040031    8.57723026739440   11.91844852976070
C        13.13774549544544    8.03294357279182   11.63123336462628
H        13.53890246143964    7.73001721001127   12.59219697752805
H        13.29251173397589    7.20699839942433   10.94591408628794
H        12.06663781477654    8.17979031601775   11.73708322491645
C        13.96964349239825    9.51487987200474    9.04496040271532
H        12.99079399564469    9.21082735704611    8.68565232115217
H        14.69662361999046    8.79636732621584    8.67971307133862
H        14.19883021320551   10.47738902042869    8.59917638954040
C         9.53670848504286   15.16035628198395   12.58512306468746
H        10.02077806386663   15.07150514645643   13.55421011703993
H         8.49108340581426   15.39382399929775   12.76111300343897
H         9.97450498046651   16.01634077732881   12.08183014143508
C         9.46847346147103   13.91685000531681    9.68882143624517
H        10.38968749949191   14.26767354345433    9.23552720721355
H         8.70855338600548   14.67537435904364    9.53004988994729
H         9.16043304946024   13.02173569486037    9.15638572132934
C         8.24785366866581   12.42196421745910   12.09642571318293
H         8.54475047647104   11.37843772387746   12.12673424639531
H         7.42498502564756   12.51314225830188   11.39615959411182
H         7.86575191531910   12.69784169993056   13.07323341158279
C        11.64886805685931    9.65940735900412   14.72300755981068
C        10.47201337356781   10.42854062268955   14.72414010717045
C        10.60547307711380   11.84199486284781   14.49532413234286
H         9.70768408142833   12.43284615728399   14.67112897766062
C        11.84982180463436   12.43914716941797   15.14312597109899
H        11.80826620889363   12.29324055445053   16.23397910649086
H        11.89807528146902   13.51691221346779   14.95631920184958
C        13.09880843676651   11.75387016359213   14.57665013997872
H        13.41718682157874   12.27314583640453   13.65246135895910
H        13.93305446907642   11.85367827479683   15.28357826422969
C        12.85027336913549   10.27476821828501   14.28207112139269
H        13.75398364107252    9.66673112687255   14.30851681650405
C        11.59663132912354    8.17693096353773   14.98306078429373
H        11.00440858194955    7.65918067092624   14.22714040452609
H        11.13853740977076    7.98571397085833   15.95458019629998
H        12.59649266696473    7.74780351174614   14.98508881311748
C         9.12909524707684    9.79679010190062   14.97371279376991
H         8.96846225777482    8.93171081530198   14.32882465290198
H         8.33281707633350   10.51456752093014   14.78776459102520
H         9.05438178158805    9.46213852106426   16.01064452496770

