59
CSD_code = BURCEW | q = 0 | S = 0 | Stoichiometry = C24H30N4Ni | MND = 4
Ni       -0.13875893337667   -7.95578065547553   -8.09438036642664
N        -1.24802105349329   -6.47499954272737   -7.99091306533270
N         0.75774942856072   -9.43631816857522   -8.75589531033568
C        -0.64958047298134   -5.29283946880156   -7.89800094519767
C        -1.25994398236376   -4.09376151158139   -8.31817144831827
H        -2.13495129828498   -4.21576770098385   -8.94187933422908
C        -0.89357029809558   -2.78183256121248   -8.09651970368078
H        -1.52396460175166   -2.04370112903360   -8.57988709320027
C         0.10506369355584   -2.27546967179277   -7.28253984826735
C         0.37342116688664  -10.61873519059227   -8.28846550167378
C         0.55065397878325  -11.81763031735539   -9.00829435798504
H         0.78988690769289  -11.69537786081933  -10.05582850943402
C         0.42489317763222  -13.12971830542498   -8.59951179494490
H         0.57486737485225  -13.86756374505341   -9.37987921187193
C         0.21969803792903  -13.63657253995252   -7.32780682840785
C        -2.64595588298038   -6.51979993735125   -8.38184789692940
C        -3.29430093420494   -7.88260913771810   -8.12852334801881
C         1.54035171474906   -9.39075219131330   -9.97842628899390
C         2.18994810413143   -8.02671959627470  -10.22190337997421
C        -3.76040891792217   -8.03802650839789   -6.68258370928323
H        -3.20731278776988   -5.75502228791312   -7.82651321816827
H        -2.72913505825578   -6.28757166492278   -9.45520095192660
H         0.88811561733311   -9.62480577193614  -10.83442815190036
H         2.33050659497731  -10.15388679256391   -9.93747972401549
H         2.39273573219127   -7.92260793222883  -11.29063650064950
H         1.48383372815327   -7.23890341375530   -9.93356340494547
H         0.28422951734699  -14.71067089262000   -7.21530550631285
H         0.13196726802086   -1.20140129753376   -7.15539271670937
H        -2.57710064757970   -8.67179594174820   -8.38371587600285
H        -4.15837721740824   -7.98605003023754   -8.78945427382304
H        -4.26908158101577   -8.99928354131287   -6.57228767128376
H        -4.49201103669164   -7.25401076747529   -6.46653890301279
N         1.29896513795462   -6.55584302299848   -7.66239972713609
N        -0.92404949838344   -9.35587949958974   -6.81555819562159
C         0.73781244435527   -5.37987784032192   -7.42868712717229
C         1.07237666090646   -3.00814345260597   -6.60666616450561
C        -0.35014014405899  -10.53206385922703   -7.01502685472277
C        -0.05402361284319  -12.90433998107175   -6.17968989251968
C         3.50137877118285   -7.86889928493684   -9.45544503287138
C        -2.62763723648115   -7.94945273532012   -5.66168659742883
C         2.69906911961621   -6.71731916856046   -7.32825788188592
C        -1.74598496245867   -9.19432811274054   -5.63382741669586
C         1.38075391824785   -4.34468864011559   -6.70924357549752
H         1.72008661604512   -2.43403957123429   -5.95344384218570
C        -0.35234465199934  -11.56778091275512   -6.05073372252232
H        -0.10387791030304  -13.47880622616353   -5.26135932615511
C         3.33888483688034   -7.96030102331128   -7.93934390571723
H         4.19251554248278   -8.65063186964755   -9.78380443047438
H         3.95137012865363   -6.90607696206905   -9.71120284828962
H        -3.06097263466852   -7.82877452349552   -4.66567731403802
H        -2.00145372875200   -7.07982855711520   -5.86495278417411
H         3.25678087090498   -5.83369505849163   -7.67217501229485
H         2.80681009552230   -6.78479489723751   -6.23478958498806
H        -1.09809350623023   -9.12948948083266   -4.74621248910766
H        -2.39290953545487  -10.07677810813216   -5.52033959772155
H         2.23086106866961   -4.66058888347298   -6.12043522831155
H        -0.59610719461179  -11.25252189016459   -5.04558461148153
H         2.73802025415959   -8.83118661971198   -7.67443837241986
H         4.32636181204100   -8.08038374399270   -7.48674362280472

