47
CSD_code = BURHON | q = 0 | S = 0 | Stoichiometry = C16H10F12N4NiO4 | MND = 6
Ni       14.80499627606302   -0.00001799448204    8.23587502291809
O        13.33857870371778   -1.04117453929441    6.67603807680800
C        13.78317654251152   -1.74726175439800    5.76821844069632
C        15.11693479254388   -1.91670632055934    5.35951690088802
C        16.16444767479083   -1.28152196117924    6.01013793310327
O        16.15734479734723   -0.47872573006995    6.96982429024121
C        12.76107550444318   -2.58950346763831    4.96057825983904
F        11.50266873975317   -2.23587288530727    5.22732376228803
F        12.87651210596579   -3.89754880120496    5.24387077727415
F        12.93408161596222   -2.46486975885506    3.63580687706340
C        17.57649829850213   -1.61702205692347    5.47021916368932
F        18.52322521615240   -1.32062425486645    6.36383687722589
F        17.85350979484384   -0.93603777890131    4.35083842040570
F        17.71356487188518   -2.91796133603950    5.17685612795410
N        15.22726314320703   -1.58856604952871    9.14442191477839
N        16.47448697958767   -1.76118753464299    9.58260116567056
C        16.62897708752902   -2.97793740900951   10.12022116571319
C        15.41572455397498   -3.62469515547610   10.01526666574675
C        14.56495621574289   -2.70777237384236    9.39359780197522
H        15.33206947311846   -2.57996506049771    4.53910921935494
H        17.14446584371404   -1.00273417024053    9.50338832257760
H        17.56165704902487   -3.30629632723863   10.53165806850755
H        15.17247291518219   -4.61488866953550   10.33836060110468
H        13.53054225520797   -2.81263944884142    9.12798851778789
O        16.27128121979343    1.04128072058581    9.79576549725620
C        15.82660814327234    1.74730387560414   10.70359657061372
C        14.49282554336400    1.91666280583314   11.11224573561295
C        13.44538154654204    1.28142231077283   10.46156804850212
O        13.45258998863283    0.47863086954772    9.50188166634410
C        16.84863057734012    2.58956740626470   11.51131160100167
F        18.10708560544936    2.23599698063263   11.24463232292287
F        16.73313931790442    3.89762240421910   11.22802681883133
F        16.67554256739592    2.46490098217052   12.83607954219552
C        12.03327517060605    1.61686957745490   11.00137879364765
F        11.08662343355656    1.32042772606239   10.10769390186837
F        11.75621614618369    0.93588156458072   12.12074504606255
F        11.89613424926750    2.91780843534955   11.29471963015949
N        14.38279050734290    1.58855016146785    7.32734763001279
N        13.13558988177679    1.76128937791203    6.88915660600358
C        12.98119294858975    2.97810301785745    6.35163984357639
C        14.19451308190995    3.62472473037108    6.45658134131656
C        15.04518616356786    2.70772809631043    7.07826178079470
H        14.27761367379969    2.57990351309605   11.93264634496600
H        12.46555002535537    1.00288352844045    6.96832233104104
H        12.04854099255725    3.30656661325078    5.94022081380079
H        14.43785266863894    4.61490935070912    6.13353248516368
H        16.07960609638259    2.81249679008295    7.34389127469654

