58
CSD_code = BURMIL | q = 0 | S = 0 | Stoichiometry = C17H33MnO5P2 | MND = 6
H         5.39879604824271    0.57831573906567    0.29128313795662
Mn        4.01622082587224    0.24209051996230    0.72432121659799
P         3.57983872606398   -0.18261958279396   -1.47752003144571
P         3.53619890994694    2.47469664674617    0.63987698657048
O         2.39604949417181    3.01123675771460   -0.39411676496480
O         3.18782559588299    1.04737075248738   -2.47300068754483
C         1.99605337910289    1.80541900934933   -2.45743598553929
H         1.19792444261912    1.26906006935381   -2.98564032617394
H         2.22722085743368    2.72508329812435   -3.00663289317404
C         1.49489019110910    2.16374732718928   -1.06187210556059
H         0.54534627349494    2.70341158828194   -1.15132241361876
H         1.32641315131978    1.23932359288844   -0.49572224360759
C         2.38745680643687   -0.23043797417140    1.18325403189421
O         1.36526489374572   -0.65006230716875    1.51820138246842
O         4.77878736683012    0.53761660385421    3.52928502426377
C         4.49906911864167    0.46956046498506    2.41183783239247
C         4.50568624213165   -1.43139260707880    1.02112239504226
O         4.77163694275428   -2.50424273238007    1.35642765706054
C         4.82680755772872    3.72704436221952    0.18021975548406
H         4.30199049164276    4.68818518090487    0.14098526997324
C         5.93542504634815    3.75015013345023    1.22415844155492
H         6.31001905923835    2.73960101921361    1.39058219376235
H         5.58810707410586    4.14777336630575    2.17501204018941
H         6.76192919411845    4.36919617984710    0.87879214681322
C         5.38895957790709    3.42947349309283   -1.20185316556389
H         6.06450587248125    4.22476879396097   -1.51343115187350
H         4.58905992061333    3.34947334595972   -1.93503771460041
H         5.94014788482944    2.49386936278603   -1.18452133128884
C         2.89876651130254    3.22652309873161    2.23787394737084
H         3.69439103166521    3.09136641339630    2.97895540014642
C         1.66303220436983    2.46615101120990    2.71170578909722
H         1.25124956374002    2.93720102959178    3.60334311976972
H         1.90843053930563    1.43809143171973    2.96946364778583
H         0.88991623923831    2.46760111000404    1.94243758317520
C         2.56902916094808    4.71044457613876    2.09473273078084
H         1.95620537003498    4.88142717579972    1.21162365451241
H         3.46386415475458    5.32290933547065    2.02780745004007
H         2.00740791819039    5.04284536694193    2.96666785885344
C         4.94264877956107   -0.82191956811868   -2.57219740018856
H         4.45101752203880   -1.12546913779607   -3.50253110940987
C         5.96684524578730    0.25716074183311   -2.89982178690800
H         6.51593036296267    0.53604679287761   -2.00385236375556
H         5.48769008413603    1.13898755771114   -3.31582413577495
H         6.67984061642092   -0.12694850286789   -3.62785239891142
C         5.63749018337424   -2.01587309402491   -1.93241207519071
H         6.39496889137686   -2.40919359256109   -2.60893813003829
H         4.94078965783974   -2.81620125135865   -1.69816313653091
H         6.12980869372599   -1.71039095307259   -1.00977829483733
C         2.15659141898676   -1.36722138358402   -1.85189213565692
H         1.28484810418280   -0.80837272160795   -1.47405910559053
C         2.20483400849057   -2.69214787571208   -1.10014480017529
H         1.22995412024653   -3.17602121354536   -1.15044012314986
H         2.45630761995000   -2.55199080670697   -0.05128496461949
H         2.93472050749960   -3.36790953265337   -1.53894128921290
C         1.95059193096544   -1.61304422571450   -3.34565824568247
H         2.63311714342682   -2.37847953781292   -3.70803691185606
H         2.10273913934875   -0.70832365640524   -3.93155888018324
H         0.93524233131550   -1.96666099203584   -3.52107659092733

