59
CSD_code = BURTUD | q = 1 | S = 0 | Stoichiometry = C22H28CoN6O2(1+) | MND = 6
Co       -0.29798521937138    2.92159823209221    3.31578455796658
O        -2.21231593159275    2.91562628483571    1.41928758818112
O        -1.57398894327251    4.14845975130024    5.34726246156281
N         1.41852698312537    3.43744018797314    4.39866978878362
N        -0.87097230657251    1.67642695261648    4.65584632981310
N        -1.92877990148364    2.51081512474369    2.56141721778582
N         0.55128580954945    1.42316815147062    2.12439136664741
N         0.00777147942649    4.26856708035243    1.98690828105394
N        -1.17818412284628    4.29333812331253    4.17634823658196
C         1.89746967506797    4.68334017330422    4.32657907256941
C         2.88673456535685    5.17528951354908    5.15491042550830
C         3.41847416352139    4.33989930559171    6.12450746421350
C         2.92750142054149    3.05134381525569    6.20615998246442
C         1.92961239798924    2.62826346810763    5.33233938700008
C         1.38561021325099    1.23889087720445    5.45358623615362
C        -0.10746804412620    1.26099825261853    5.79883454784618
C        -2.13947211517094    1.41131178330964    4.56224510859615
C        -2.74248477405464    1.83101945309544    3.33511585847782
C        -2.91448341007530    0.70150342853889    5.61788786564564
C        -4.13760202857303    1.50658598429311    2.90487027082654
C         0.08211521197953    0.17361976468741    2.19742025358192
C         0.42758533116393   -0.82967699851343    1.31377205220017
C         1.30697674629966   -0.53497443552722    0.28396357700770
C         1.79462698478061    0.75476459997664    0.20080117762114
C         1.40053163505463    1.71115316053957    1.13265811971033
C         1.91350094405411    3.11230891793017    1.01143840841028
C         0.76527506140748    4.10038775713419    0.77863310152484
C        -0.74966255081865    5.30891642977166    2.16608777220746
C        -1.38596386839576    5.36385799737040    3.44579674568217
C        -0.92964502094804    6.38373383626797    1.15054592074633
C        -2.17397074610061    6.52283539074156    3.96785139307530
H         1.47472325928990    5.32606847397268    3.56896709687496
H         3.22599463913065    6.19200080668985    5.04328102036180
H         4.18781273113043    4.68436838735331    6.79735215629586
H         3.30891939581429    2.36641304130998    6.94675246842057
H         1.52236560812897    0.70599500330739    4.50995427429237
H         1.92504754701135    0.70284900409503    6.23367545600339
H        -0.41044202105124    0.25710717782522    6.11727777939654
H        -0.28769419945112    1.95357139766671    6.63055312738430
H        -3.96480820184571    0.64118688743956    5.35631539609208
H        -2.53328204657099   -0.30852306219531    5.77163349588909
H        -2.81406318553498    1.24255067302923    6.55822123285405
H        -4.86316522159154    1.99511006437798    3.55374296076446
H        -4.27923810342761    1.87035137566215    1.88948689081707
H        -4.31750081938537    0.43321000694723    2.92482204706098
H        -0.60384297598421   -0.04433727971116    3.00223310769303
H         0.01054730172215   -1.81651057861834    1.43002271370998
H         1.59881587993174   -1.28602448197900   -0.43300404785566
H         2.47898126893430    1.03124438443288   -0.58551546829781
H         2.44054649883375    3.39210743482369    1.92636886492323
H         2.61259318116578    3.17384260611347    0.17815323876698
H         1.18545177143754    5.05890844569276    0.45361065726217
H         0.10744953195087    3.72701247033506   -0.01622901590915
H        -1.65313365698268    7.11857611356711    1.48494366086724
H         0.01398509798209    6.88997280058280    0.94459389847026
H        -1.28020300433071    5.93969775750792    0.21947945696520
H        -2.44189238549006    6.32030693061207    5.00254924278274
H        -1.59652192217132    7.44456310194996    3.92525021173349
H        -3.08856560781455    6.65596869326759    3.39158750694002

