73
CSD_code = BURWUH | q = 0 | S = 0 | Stoichiometry = C18H40CdN4O4P2S4 | MND = 4
Cd        3.99645857760482    9.04026366321504    9.96743564038317
S         5.93563365782613    7.45581042108501    9.31433108903179
S         3.17741460337047   10.28717913217680    7.89580462779646
P         6.21744567341231    8.96356303965822    8.04947578634825
N         5.24582971013112    9.00752266977795    6.75594440894626
N         3.31217619138906    9.05570925595430    5.56995597846232
O         6.29835605702522   10.29878644403381    8.92075498159759
O         7.66864539213937    8.90269524455865    7.41382718950315
C         3.97918766695362    9.35720747756468    6.69206988495798
C         6.68394018526213   11.55802756889343    8.32897453470417
H         6.54094918010906   11.48517515524346    7.24199413117402
C         8.14803612415433   11.81544507045988    8.64958542675026
H         8.76293339246302   11.01477737567094    8.24751209152156
H         8.28053369914093   11.85189545237549    9.72815311214118
H         8.46102394812137   12.76190218450330    8.21629878978545
C         5.77083741433626   12.62400836137405    8.91567726851647
H         4.73753898683134   12.42800953138528    8.63643414511206
H         6.05960616304991   13.60523409794760    8.54920280102491
H         5.84798444388172   12.60324752681844   10.00117576736272
C         7.98713402929926    7.83180546991028    6.51225339089687
H         7.06239384668506    7.28866526487071    6.28325180834602
C         8.97324989339752    6.89865972242427    7.19735584365696
H         8.52835306351511    6.50398051727139    8.10762586173648
H         9.87930732803503    7.44131497502929    7.45595639338221
H         9.22463323933169    6.07385661257199    6.53643307748514
C         8.54946413556344    8.44947055589643    5.24052736049744
H         7.81859876919891    9.12586804538812    4.80422586906811
H         8.78732617811188    7.66941187756715    4.52282287932004
H         9.45156487533051    9.01134330689517    5.47011384260174
C         3.94504939476369    8.34150952742056    4.48764070130609
H         4.99666940085190    8.19929410872964    4.71817126035887
H         3.84719765756206    8.91461984475404    3.56284706197779
H         3.46871458613547    7.36726231400369    4.35194370730042
C         1.93067893553695    9.39443379761740    5.34651052391001
H         1.48377426507011    9.74459224399849    6.27398734610897
H         1.39439785493111    8.51090835023887    4.99508424295053
H         1.84839764257916   10.18271470222725    4.59336762316847
S         2.05690996434001    7.45645501320187   10.62036750553380
S         4.81495999651025   10.28761664956448   12.03896432587284
P         1.77493161323304    8.96435937960955   11.88496120527292
N         2.74613024648522    9.00850551579035   13.17882664372342
N         4.67884012846696    9.05897892103442   14.36620295177807
O         1.69441277245950   10.29964707895538   11.01378206115867
O         0.32352474756437    8.90361880269424   12.52016814285222
C         4.01254729347629    9.35886065847383   13.24322286039489
C         1.30784329731240   11.55852197565767   11.60572874711853
H         1.44920746549109   11.48502373949952   12.69288097769170
C        -0.15580973738857   11.81593067035685   11.28308739580377
H        -0.77116111931137   11.01488057941330   11.68370138230874
H        -0.28669398274119   11.85309068297866   10.20434658061481
H        -0.46961174672869   12.76203633621751   11.71655765082784
C         2.22165939955834   12.62502466843799   11.02110536724357
H         3.25462469051963   12.42874823066179   11.30138287468315
H         1.93246494755351   13.60589842442991   11.38819871131051
H         2.14579192973758   12.60532477430343    9.93549989647094
C         0.00438451002192    7.83211884882660   13.42079558968295
H         0.92900230865166    7.28897049419711   13.65029180179571
C        -0.98101617843853    6.89927366843061   12.73424466549433
H        -0.53529148988668    6.50521862305882   11.82410688480632
H        -1.88691200258528    7.44199593293034   12.47520627583709
H        -1.23287898411925    6.07402289790141   13.39442430096969
C        -0.55919123233548    8.44891245250063   14.69239606446378
H         0.17116609500318    9.12511532156187   15.12984495421154
H        -0.79765327983591    7.66835719767394   15.40936120599493
H        -1.46113393724638    9.01083433175560   14.46231021438100
C         4.04537919230947    8.34589338603489   15.44891662086762
H         2.99355485250469    8.20473259938024   15.21861107462201
H         4.14406975667410    8.91935237648701   16.37340410035629
H         4.52063675182003    7.37115046687919   15.58499226913699
C         6.06020357814523    9.39797000676107   14.59010446186586
H         6.50765226731607    9.74718033700448   13.66253807857767
H         6.59632993041243    8.51484964548704   14.94279038536354
H         6.14198979193944   10.18705840236913   15.34244932172752

