42
CSD_code = BUSCUP | q = 0 | S = 0 | Stoichiometry = C17H17ClMnN3O3 | MND = 6
Mn        0.70498601970190    2.64442105252970    4.85945571087106
O         0.59437672674253    3.77497363502921    3.45613412996524
C        -0.62199740779338    4.20090323745369    2.96577999272222
H        -0.42207947308607    4.87046021736874    2.10389853870032
C        -1.54361995178316    3.05938394507911    2.49455214420389
H        -1.02175161745733    2.46991100361027    1.73733424566635
H        -2.45291146577562    3.48090333629722    2.06032215508121
O        -0.75928143764506    1.49733004774494    4.14870516978329
C        -1.87436449313795    2.13829095291284    3.68610796956569
H        -2.58280705939658    1.35996867205556    3.33163793388416
C        -2.57097625375609    2.94231438338429    4.80231007232092
H        -3.51879127283836    3.35777109246497    4.45285695236681
H        -2.75924550961077    2.27220030004871    5.64410734601575
O        -0.45589837910758    3.65860392871800    5.81239099092168
C        -1.64840114562885    4.08559849540568    5.26766692254480
H        -2.18135748915707    4.67291656352868    6.04370092260281
C        -1.35495700663659    5.00535687506875    4.06206465050081
H        -2.28750421553883    5.40724123115009    3.66586406316969
H        -0.70793976767193    5.82139516005001    4.39149217202554
N         1.80870366742084    1.31994723056716    3.92622943328316
C         2.36276050325362    1.50103122883283    2.72317155474463
H         2.33663755905371    2.51668917267826    2.34795439248727
C         2.91919256216029    0.47847714036775    1.98404707594556
H         3.34262039308849    0.68165599121570    1.01319569912880
C         2.91701711866360   -0.81408684266867    2.50584547171201
H         3.33793510580428   -1.63642722738415    1.94807429781851
C         2.36099382366121   -1.01626539089987    3.75163955560763
H         2.33988497849658   -2.00275645547118    4.18639028104036
C         1.81169311300177    0.06438872198491    4.44408016333718
C         1.22117524741016    0.00432697000302    5.76676487567449
C         1.11032044179847   -1.14361336463734    6.55351354974668
H         1.45312657768598   -2.09298917766654    6.17429781278229
C         0.54886357060338   -1.05541026826525    7.81011907422541
H         0.44381125682477   -1.93137310713787    8.43158357691991
C         0.11782953664059    0.19292043735108    8.25612613199962
H        -0.32822490731691    0.30739970020494    9.23135470179484
C         0.26118453495515    1.28681295730766    7.42887168006553
H        -0.07022649291948    2.27147558876116    7.73485716445305
N         0.79203169535650    1.21651151007262    6.20400818071074
N         2.14191596684635    3.56495084055695    5.54572272297163
C         2.92942009568560    4.32362694989469    5.93971747653270
Cl        4.06455485140160    5.32046326442870    6.50175304410661

