81
CSD_code = BUSGEC | q = 0 | S = 0 | Stoichiometry = C38H34HgI2N4O2 | MND = 4
Hg        4.09482512288075   12.50274627062980   18.41370552859457
I         6.33214445364932   13.92151144217855   17.76409099461152
I         1.95551946367620   12.77213107329719   16.79989556527260
O         2.79730189433906    9.57826897565320   20.22951817555213
O         4.50129281060255   10.95725316789321   21.66848856473940
N         5.98766523076392    9.63140650413438   18.03378467670550
N         3.91741667365829    9.17533938887483   17.75190891748466
N         4.65450030645361   13.85142458077435   21.39144931192902
N         2.84218204502197   14.74311534452371   20.68832205282809
C         6.85160057123914    8.97133962363145   20.61901877428554
H         6.08687207593091    8.38218914877838   20.13487478831654
C         7.15047368421217    8.68041852029571   21.95763859472638
H         6.61127789501905    7.88799959333202   22.45586925781043
C         8.10869607975715    9.39487202667098   22.61624334426548
H         8.35245097835213    9.17535053206239   23.64618019505712
C         8.79929763609297   10.43805650491075   21.96223756565728
C         9.77896737845588   11.19532807413303   22.63774093984676
H         9.99627537539899   10.95232161916550   23.66847016274656
C        10.44008146354438   12.21056705670362   22.00672656895105
H        11.18836728725565   12.78635435886598   22.53109233428875
C        10.14843264667919   12.50719086004818   20.66817303510630
H        10.67058470433015   13.31279114397913   20.17509458000670
C         9.21002623554196   11.78662824426528   19.98190323163568
H         9.01280293066350   12.04147363195482   18.95366237126232
C         8.50121111023458   10.73490349850535   20.60356256830662
C         7.50650587465245    9.96487650682448   19.93827702471861
C         7.20791541355110   10.24613439994667   18.48111221247116
H         7.12878073539285   11.32234058861004   18.31992743078342
H         8.03441451958458    9.87480457776920   17.86416804099470
C         5.92701120041922    8.33977416116238   17.58720474879874
H         6.80491839345941    7.74748567869462   17.42906494975687
C         4.61796389487313    8.05000980611355   17.41243146534918
H         4.13685245916747    7.15738095073692   17.06849651813062
C         4.75161777771356   10.16487281795832   18.13949139955359
C         2.48910633846957    9.17692792471872   17.91275239272035
H         2.03382072286933    8.50858576630009   17.17929242320239
H         2.10168075690778   10.18417495597554   17.76750112674868
C         2.14650739578856    8.70766792009671   19.33025439417844
H         1.05828429495950    8.73405931602559   19.47388876432988
H         2.50398596179487    7.67750258006142   19.47474424136124
C         2.99734033077433    9.14740746316522   21.50874555069769
C         2.35602319440492    8.05734282034413   22.07402437849670
H         1.62174482471003    7.50502361303803   21.50915734758221
C         2.63177110492901    7.66981982718786   23.37776972678991
H         2.12016999527962    6.81768198600711   23.79750034119993
C         3.55223135291362    8.37249770765301   24.12315090935178
H         3.78027432068288    8.07479257155716   25.13487666260162
C         4.19159266930486    9.47715716323256   23.57735000913746
H         4.91169973454712   10.00962116814146   24.17735235194023
C         3.92471917371180    9.88078772243383   22.27939802515994
C         5.36168684623722   11.76430515906787   22.43842525919190
H         6.26148480436336   11.20618962000166   22.72757549262457
H         4.84670998053620   12.11590978501497   23.34516312382731
C         5.76577489625922   12.96056740678938   21.57986786847082
H         6.58378319989172   13.50099283321682   22.06154082625302
H         6.10898261036741   12.59005454634988   20.61251878647170
C         4.35119713420036   14.86395681786833   22.26094709903171
H         4.96647158489790   15.09947770446054   23.10488769836422
C         3.21145556512186   15.43443693320247   21.80761999777833
H         2.64748197963198   16.26431369025165   22.18095854082148
C         3.72554266736927   13.76134744833836   20.41677254875318
C         1.71602853329752   15.10644936355699   19.86809574565812
H         0.99516011120919   15.63855475334483   20.49827359174772
H         1.24397798597647   14.18893393715681   19.50208146891787
C         2.09900586087662   15.96913391246460   18.68053196779599
C         3.38801175799706   16.39308864620725   18.49095297462282
H         4.16201488420091   16.16052582298336   19.20906149720295
C         3.75165845474679   17.13514365157244   17.35753319373245
H         4.78437383408298   17.42425437762468   17.23332709498287
C         2.81428867201526   17.45945245008666   16.42201716502002
H         3.08670378479617   18.01615214659125   15.53713310714999
C         1.46987585190677   17.06657419070484   16.58911086682967
C         0.48882589042282   17.40085142919117   15.63319575230098
H         0.79013080425958   17.97075831870114   14.76570046988597
C        -0.81006911207319   17.01074026462373   15.79263708606242
H        -1.55516196157336   17.26632201743400   15.05337692049953
C        -1.18184426271631   16.26770768080542   16.92103117997117
H        -2.21052367413881   15.95875603770741   17.03774744847914
C        -0.25487455050065   15.92735793516925   17.86644692692085
H        -0.56764111348905   15.34900029422243   18.72202108744899
C         1.09658848520198   16.31167964647070   17.73306267710217

