31
CSD_code = BUSKOP | q = 0 | S = 0 | Stoichiometry = C9H16B5Co | MND = 10
Co        2.02590023175947    1.36263588710969    1.83833534343670
C         5.03632882955501    2.06614190188793    2.29698803191868
C         3.43486207657527    3.66609743081245    0.26068109260146
C         0.91585724470223    0.71094711585740    3.45316041185116
C         1.78096225360141    1.73468314748008    3.93811220241431
C         1.45514079392795    2.93548296825973    3.29372936206614
C         0.44330932201222    2.65291572805914    2.35063597173878
C         0.06929186100162    1.28799739589341    2.48477384056953
C         3.98835511447297    1.42073357430132    1.42938601790687
C         3.21890492789509    2.18851187773889    0.45507606353176
B         4.21995468960668    0.94003787521762   -0.22455803003413
B         2.30844226493194    1.21985046481356   -0.40127341059758
B         3.64903855641598   -0.11775138352556    1.29945983678772
B         1.98466406489624   -0.20908278695867    0.64006199753949
B         3.21646675126488   -0.33154097195887   -0.43583590421953
H         5.21673186327948    1.31453151041050   -0.71609070835123
H         1.66752296136095    1.67359931394283   -1.27642711085816
H         4.23391540683520   -0.88365925173464    1.97329088450827
H         1.08307468355881   -0.94602466889312    0.77907448739216
H         3.24992705215273   -1.23905884597289   -1.17591926905291
H         0.82994923991600   -0.28033970464244    3.86705199149875
H         2.48239793767031    1.62203762287273    4.75005146174216
H         1.86834882777848    3.90771272032016    3.50811577167371
H        -0.07000086213116    3.38307612056248    1.74408535283312
H        -0.78210864987654    0.82147660568433    2.01846575244205
H         5.47437810063389    1.34009908842983    2.97941771758661
H         5.83710974517002    2.47532342132748    1.67918939718948
H         4.62356602081726    2.88498965184096    2.88698626002965
H         2.74201221381320    4.06436470522740   -0.47819487311652
H         3.29976111642205    4.22026745342935    1.18970461497399
H         4.45003535998036    3.85514403220700   -0.09153455800243

