105
CSD_code = BUSKAD | q = 1 | S = 0 | Stoichiometry = C44H46BN8O3P2Ru(1+) | MND = 6
Ru        7.13159597418353   13.01459887634400    4.60310954742951
N         5.26738235831683   12.77460192240314    4.87182233569462
N         4.49249142073878   12.95066650844854    5.71693872464499
C         3.55536372601636   13.16042278663754    6.55141913726365
C         3.03333825519884   12.02067671782238    7.31112656851847
C         2.58339656609504   12.17543403431317    8.62188468107513
H         2.61952094114043   13.14827773148053    9.08854752739420
C         2.11032700372476   11.08501067925271    9.32740138378766
H         1.76107498088165   11.21627748995504   10.34028625624292
C         2.08681171257076    9.82827612438224    8.74445188742978
H         1.71176674003183    8.98099883914048    9.29734134307591
C         2.54967988781879    9.66397666719302    7.44849050762773
H         2.53236064129966    8.68596387366720    6.98946842783115
C         3.02284046839521   10.74911904656847    6.73554633121052
H         3.37855513669704   10.62366602115695    5.72291131371909
C         3.10581159763553   14.54285113116961    6.74386954656628
C         1.80853871256986   14.82812779277336    7.16938429823787
H         1.11408524713758   14.02181514854109    7.35058721935039
C         1.40498369638664   16.13632695931070    7.33987067380387
H         0.39807853890198   16.34166821267589    7.67233941780253
C         2.26724812691634   17.19889252518764    7.08398610826562
C         3.55240873570135   16.91120434193197    6.64094971484099
H         4.23957550994881   17.71757217450678    6.42791398638300
C         3.96700971701806   15.60573330182285    6.47207533748040
H         4.97552565768311   15.40615143478123    6.13482763478041
C         1.80433374169477   18.60870768875523    7.27102431836449
H         1.38144483266043   18.74254791893237    8.26514598942201
H         1.02559796359959   18.84736608817535    6.54714438047031
H         2.62338759323205   19.31098513115245    7.14079710950237
P         7.65774155697335   10.96526369598895    5.48936416296720
O         8.58603041717735   10.05201104911010    4.53044272769660
O         6.34657450308396   10.12879241594533    5.84912003839623
O         8.41703437209031   10.85165087553715    6.91937555979001
C         9.67289287865862   11.47473502019984    7.12759572879638
H         9.56762135685307   12.56057039779551    7.16786594717387
H        10.38211186667081   11.21213154250493    6.34037114461220
H        10.03990927386392   11.11506318927010    8.08816008830905
C         6.23224068488479    9.04791281042159    6.78242258515373
H         6.32965908678108    8.09576697437853    6.25991678930038
H         5.23746505507416    9.12653464313200    7.22231508805685
H         6.98408212694687    9.12029086058212    7.56565174008719
C         9.07575752864921    8.75761432818458    4.87350150236170
H         9.19040637142443    8.64355888901125    5.95296409775270
H        10.04497435241987    8.64547983668807    4.38710092696180
H         8.39495688972753    7.99521273702920    4.49281097714248
P         6.95517068496710   12.23361425008697    2.38715603278395
C         7.73922989702374   10.66874109026314    1.84984679536815
C         9.07196830372911   10.72869568780161    1.44459668612362
H         9.57857158844396   11.68383158754014    1.41003110260435
C         9.74283024070865    9.58293132133979    1.06217299851852
H        10.77459022033079    9.64397824509937    0.74888387344867
C         9.09094297947303    8.36050984555201    1.07201278155335
H         9.61307582320128    7.46468557273946    0.77213329178845
C         7.76240708522229    8.29646357740068    1.45520052663956
H         7.24366065022233    7.34893215727886    1.44638221714860
C         7.08794966068612    9.44108012231869    1.84447172574517
H         6.04890639762051    9.37156936118250    2.12668386202881
C         5.19165611249663   11.96349592504968    2.00946005116814
C         4.49795187667115   12.65144531292186    1.02041326821545
H         5.00904784757853   13.36666456853612    0.39183144122528
C         3.14301043289676   12.42743063516010    0.83829386748104
H         2.61352243349229   12.96374275090851    0.06527457443959
C         2.46862501000195   11.52513209441175    1.64218441634256
H         1.41396418139744   11.35112700415256    1.49405046756203
C         3.14812158980121   10.85454373809966    2.64746531061173
H         2.61777324276713   10.16036899910929    3.28308426901475
C         4.49842635725290   11.07954807284190    2.83922266983238
H         5.02982866392710   10.58377203284498    3.64414631704461
C         7.55349818028743   13.28319246164163    1.02050569660685
C         8.25417262052143   14.45990323622974    1.25122968598248
H         8.44670015408339   14.78491047374382    2.26353296683331
C         8.72592322602254   15.21306751912357    0.18924389578709
H         9.26915903797462   16.12672535208721    0.37911203147017
C         8.50605741248832   14.79305368874574   -1.11093028270955
H         8.87158344176931   15.38134998679657   -1.93849523311578
C         7.82634697450906   13.60775227009051   -1.34953565139379
H         7.66664805031517   13.27078319804268   -2.36257647235785
C         7.35803037414100   12.85217017066861   -0.29236569944799
H         6.84441875781276   11.91811021223270   -0.47632303630887
B         8.50535494592025   15.72237892359830    5.52477471870525
H         9.02094934586000   16.72594929997412    5.86122193630326
N         9.11371970094391   13.54120959100132    4.44648315962887
N         9.50637534722605   14.73848573953207    4.89702890859554
C        10.83477738958191   14.85883957087520    4.75637451344625
H        11.34636628932967   15.75085281119413    5.05374401374850
C        11.31757254973020   13.69398395804627    4.19829218914490
H        12.33115684564107   13.45793222273463    3.95117500756275
C        10.19096365741705   12.89185829543616    4.02357576645715
H        10.11202850876390   11.89905831588771    3.62205674705470
N         6.69723502238335   14.92107018574179    4.01023161758530
N         7.38478083038353   15.95461229869743    4.50198664653082
C         6.87494030723059   17.09939564962926    4.02504337822330
H         7.28825783014092   18.04786912845106    4.30036562975047
C         5.81808001709459   16.78875983871303    3.19510197315807
H         5.19010793115821   17.46422846435651    2.65377769903696
C         5.74416533141590   15.39764507698428    3.21979290328135
H         5.05933943716110   14.74049546827757    2.71470386072062
N         7.22795437189823   13.81736311218167    6.50707242864644
N         7.85060773924216   14.98242380138724    6.70581102757397
C         7.77168136030112   15.31872972045777    8.00069260631695
H         8.20941142677379   16.22427744992217    8.36703825958153
C         7.07298715202463   14.32968924406393    8.66198743625901
H         6.82828914313920   14.28389410636024    9.70202422722656
C         6.75164364550632   13.40120645333311    7.67394184427595
H         6.21759055844119   12.47316231660275    7.76636424033961

