52
CSD_code = BUSNOS | q = 0 | S = 0 | Stoichiometry = C15H21B2F4N5NiO4 | MND = 5
Ni        1.61604674485995    0.55078806837859    4.11926176267826
N         1.34580381109681    2.39991431849195    4.15334803141244
N         0.15431576955640    0.54634671554476    2.95295712645337
N         2.64116055831289    0.58199482803422    5.68014935032145
N         1.43062814036430   -1.27048825254735    4.49725135414620
N         3.29474184137428    0.38233818189352    2.65741369731548
C         0.34438288604561    2.79493172441994    3.43077266703609
C        -0.34598032514345    1.72335276923569    2.73925545275000
C         2.76024949444943   -0.57663985984206    6.24932288078832
C         2.06019967720675   -1.64727483100010    5.56609855383970
C        -0.07311572925574    4.22116264992855    3.31740278055714
C        -1.52526286324686    1.97217033439883    1.86172576252636
C         3.54870367216687   -0.80749925756658    7.49342507722698
C         2.07331988292358   -3.05354913462062    6.06012961213891
O         2.03388109040557    3.30439251153317    4.85887508712853
O        -0.42171128962938   -0.51720047897315    2.38148309023811
O         3.23460840157716    1.64346986807479    6.23430232000753
O         0.73517911971734   -2.17530439387137    3.80017097148727
B         3.36984746995927    2.86493914669321    5.37360051476920
B         0.35159547827272   -1.79932347835821    2.40127971493665
F         4.17604048443762    2.55209799456993    4.29161095342382
F         3.88148639937449    3.85653165858978    6.12965481940921
F         1.50875762885385   -1.62872296438303    1.65759359315828
F        -0.43709735013883   -2.77399772569072    1.90591860049400
C         4.42160390417287   -0.50394309255050    3.01722321202495
C         5.42347980353919   -0.57456119062775    1.89381561583261
C         6.55428204467641    0.23091291044239    1.89916028782189
C         7.44497010416034    0.18933114574161    0.84040505078444
C         7.20745466828127   -0.65188437418874   -0.23349530708595
C         6.07428314341917   -1.44841790699895   -0.25015648588750
C         5.18406516681168   -1.40870387170951    0.80803986789242
H        -0.99440255698058    4.38853834937788    3.87452165046374
H         0.70483993127982    4.85537048774041    3.73556941604476
H        -0.24968579462337    4.48755534581200    2.27805552395136
H        -2.29060327923143    2.52630854515599    2.40143724198764
H        -1.93104189828877    1.02127684692735    1.52646966366268
H        -1.22992634307694    2.55811945727181    0.99235027073088
H         3.96537458360267    0.13629877217136    7.83507150475139
H         2.91467424514909   -1.22639989572836    8.27261337885660
H         4.35902632899426   -1.50896177865702    7.30155474785740
H         1.62767762683972   -3.70122622079113    5.30930658010710
H         3.09116286337844   -3.37593044610324    6.26776239518909
H         1.49634076506733   -3.13495248194083    6.98038940647390
H         3.68825411249142    1.30919282626368    2.48468190224275
H         2.91681860631729    0.03846301479302    1.77217530191811
H         4.88953658580032   -0.10609406461929    3.92036584903472
H         4.01709057193054   -1.49926375591680    3.21952987058470
H         6.73289724459589    0.89158005338397    2.73506806756541
H         8.32511265525789    0.81504880403765    0.85286423131284
H         7.90398002698874   -0.68532208986008   -1.05825438081062
H         5.88433300814565   -2.10187193392850   -1.08866843962003
H         4.29612088775996   -2.02449384843625    0.79703980207441

