60
CSD_code = BUSWOD | q = 0 | S = 0 | Stoichiometry = C27H31FeN | MND = 9
Fe        1.22548583269689    2.31454864735303    4.82323341823271
N         3.80992344378266    1.23733835145079    5.84774032053080
C         0.48950155436997    0.28816869631692    4.69432193913993
C        -0.15329708514220    1.17749493930296    3.79918539638813
C         0.49850161806495    2.05101625366927    2.91167717521204
C         1.90102218741219    2.18760619950441    2.77714153537047
C         2.94289103000856    1.24053695932375    2.47641173396141
C         3.12023892339561   -0.07665874239910    2.72573476468505
C         2.44928721191411   -0.97111979618749    3.60691850413093
C         1.43522281690707   -0.77739802026516    4.47992942388491
C         0.52740167386602    2.44693921281948    6.86280297802643
C        -0.11295291349995    3.35936089489882    5.98940530750983
C         0.54091397709788    4.23835953869496    5.10890218463858
C         1.94334637413311    4.34590198343798    4.94876456478679
C         3.00654106528047    4.62233502642083    5.87946787872375
C         3.20140756782036    4.36276541165810    7.19219160462793
C         2.52950135707600    3.48912769805886    8.09331778049781
C         1.49575746850196    2.63663881527220    7.91251066074258
C         2.81647066652951    1.67361955199231    5.43156712844730
C         4.92580962362423    0.62672883039601    6.43719857925630
C         5.75269538441401   -0.07659391880757    5.35668185373340
C         5.77998250767891    1.69007183243419    7.13408245936907
C         4.43741547879512   -0.40019817023783    7.46538464088058
C         6.95801666629505   -0.74862169938426    6.01340421621719
C         7.81588155708133    0.30715222234153    6.71062508527460
C         6.98514951872567    1.01089782666621    7.78361437037103
C         6.50321853409068   -0.01320794443380    8.81084836572830
C         5.64787346689016   -1.07050080928003    8.11319952129501
C         6.47616923455021   -1.77461840372778    7.03879565797872
H        -0.17860867109463    0.01543262751206    5.50899971353215
H        -1.22494639256593    1.30925583855216    3.91194284624979
H        -0.12331664700743    2.78553474217951    2.40904994628456
H         2.15198246326740    3.15037236158656    2.33659754876752
H         3.75061866298836    1.69853761711846    1.91361770510500
H         3.99673267356672   -0.51557770987038    2.26087871539768
H         2.91620119987280   -1.94973707372562    3.65709324721615
H         1.28026150128235   -1.59815886650281    5.17434471421960
H        -0.15187793781728    1.64411805691409    7.14301148149915
H        -1.18876498623836    3.26844824622720    5.87595260133847
H        -0.08344363293174    4.75705841652139    4.38784224746663
H         2.18649378016727    4.78620383447717    3.98388968271438
H         3.81678366241363    5.17243624951717    5.41060943524069
H         4.09367364536314    4.80895797102747    7.61852902921557
H         3.01235445577359    3.42428636808296    9.06330728239566
H         1.34207165504379    1.94027923132508    8.73186349524437
H         6.07843235512570    0.65468198659433    4.61416781745062
H         5.12845089966706   -0.81379830630819    4.84860727984828
H         6.10584994898692    2.43199261611359    6.40226415347835
H         5.17494919697217    2.20309170791108    7.88374912525981
H         3.80913012790915   -1.13942745734399    6.96438785977714
H         3.82821767605722    0.10577196685726    8.21709575242271
H         7.55225700454180   -1.25254785229212    5.24346186314227
H         8.68727244483592   -0.16635506248571    7.16790979982300
H         8.17518075719429    1.03587059883114    5.98082862877165
H         7.59879979088615    1.76855871963679    8.28287128797376
H         5.91786246391503    0.48548351581219    9.58628944910060
H         7.36107850877564   -0.48817246356889    9.29159371601745
H         5.30205861680214   -1.80504604814054    8.84861687501863
H         7.33377310286548   -2.27117416527213    7.49768861667356
H         5.87149493101875   -2.53806905460083    6.54467903372073

