98
CSD_code = BUSWUJ | q = 0 | S = 0 | Stoichiometry = C41H53FeN3 | MND = 7
Fe        1.11286734323751    1.19671931305087    8.86384333479807
N         2.62379006460256    0.90496809534213    6.29604399465694
N        -0.60928416087759    3.56377165033384    8.29539311677257
N         2.73957910591456    3.02190290823768   10.57405564191249
C        -0.52649974065240   -0.28208734352501    8.16348479675492
C        -0.39234845345069   -0.19889864661035    9.58881007061328
C         0.78378298244221   -0.38534159153343   10.32724123457377
C         2.08197099910639   -0.69023843608211    9.80111272706678
C         2.54409104166132   -1.72510491697949    8.92533759899173
C         1.98140954103943   -2.44314389303627    7.91616456715811
C         0.79110021836487   -2.26219800490018    7.17480905321045
C        -0.17731330693903   -1.30833004587665    7.22671264325583
C         2.07144425868705    1.13914836226142    7.30179379919096
C         3.18000807812188    0.39431271209482    5.11195480507158
C         4.21096838446803   -0.68304722621169    5.46902950343782
C         2.06188798432970   -0.22710948360607    4.26571721904294
C         3.86047233886298    1.51727542404097    4.32184235953370
C         4.80250171144734   -1.25638576440005    4.18299756748752
C         3.68832294717665   -1.87684596544107    3.34115881721404
C         2.66252756466874   -0.80186549633649    2.98472879417234
C         3.34199709336781    0.31550450466125    2.19309427045781
C         4.45431800241022    0.93454951914418    3.03923574222522
C         5.48321122802377   -0.13948337833005    3.39160340743843
C         0.03763290082977    2.60414819809167    8.49694370548147
C        -1.26292538417980    4.76466656417144    7.97317489177334
C        -2.75887360148288    4.63781088303386    8.28527697463344
C        -1.07531918938553    5.06596756893018    6.48046961773651
C        -0.66130286676798    5.90512415319115    8.80464173662626
C        -3.45885966843640    5.95052176347183    7.93662997510650
C        -3.27297701438703    6.25050668610398    6.44952208875847
C        -1.78179994948864    6.37701067890149    6.13893466088315
C        -1.18105134886491    7.51270908515557    6.96675844964232
C        -1.36912253100077    7.21266850029460    8.45352126585122
C        -2.85997354500397    7.08633315087662    8.76582440309703
C         2.13602495658166    2.27281169249749    9.90034756283447
C         3.36039055435666    3.98421671165662   11.38707838603347
C         2.63319780131096    5.32566545274365   11.22604158237683
C         3.29139041437380    3.53758811145499   12.85300913557395
C         4.82753737655493    4.14433524388965   10.96969231161244
C         3.23514422492816    5.92758652298667   13.57312537012622
C         3.96094338587603    4.59198462225419   13.73288164618447
C         5.42315632644949    4.75120040838910   13.31749960885375
C         5.49102625760038    5.19669182138001   11.85700155279466
C         4.76677782934139    6.53302492084138   11.69584274187509
C         3.30507036107623    6.37277151195672   12.11266461599148
H        -1.44776704632398    0.20819334711020    7.84103578326551
H        -1.27920018250535    0.10564332876388   10.14379136877332
H         0.72349695737859   -0.21016193236395   11.40115131215040
H         2.85340367314648   -0.46555661234708   10.54081698506727
H         3.57966941247724   -1.98899352336740    9.12856069449337
H         2.60463416162403   -3.24827334850116    7.53553466303864
H         0.69256625754716   -2.95943925358146    6.34663619000406
H        -0.84791012483357   -1.31376758388722    6.36990114183388
H         3.72040119266005   -1.46374085382380    6.05374277424532
H         4.99648551800137   -0.24384521553317    6.08855699607182
H         1.31705388079515    0.53688169960661    4.03019815718628
H         1.56885157110528   -1.00774771014222    4.84815096378144
H         4.64513634469179    1.97100755663007    4.93196937500122
H         3.12844656541456    2.29280581603079    4.08368384486587
H         5.54002480618748   -2.02542613789473    4.43793432382285
H         4.10709273277938   -2.30894526560947    2.42935430565181
H         3.20385702892343   -2.67861152723616    3.90213913266529
H         1.86337087450797   -1.24457352658524    2.37986885480208
H         2.60905948924979    1.07989332897662    1.92443958816955
H         3.76110427857512   -0.08612064036432    1.26779461077273
H         4.94172331080646    1.73632962785679    2.47265952010916
H         6.29014274001428    0.29794545171337    3.98411794008050
H         5.92165428033053   -0.54564011939479    2.47729922036236
H        -2.89144001285467    4.40515681158376    9.34440316258182
H        -3.18240854691012    3.81492818377733    7.70512112104717
H        -0.00810680447490    5.13479827799047    6.25729530162588
H        -1.48761803640835    4.24468281703757    5.89024493663626
H        -0.77922730496457    5.68111603804235    9.86728221748301
H         0.40817270887998    5.97900731999315    8.59476353308686
H        -4.52741143516757    5.85859686035849    8.16049232812297
H        -3.78582095328734    7.17970365473300    6.19178324942924
H        -3.71104790817595    5.44910485439882    5.85048347137669
H        -1.64691972579281    6.59062449867285    5.07279926901154
H        -1.67102778464083    8.45547463965031    6.71396222118709
H        -0.11754818830705    7.61616588330584    6.73967930354458
H        -0.93790150053335    8.02562708868288    9.04849147770322
H        -3.36861567111264    8.02409082009306    8.53206649859291
H        -3.00153712448158    6.88515456133114    9.83016110217713
H         2.66825264185989    5.63187150450546   10.17800664795671
H         1.58375057272926    5.20443118027541   11.50392709162578
H         2.24644938913991    3.40592376733432   13.14338210165918
H         3.79434525418137    2.57428885433291   12.96342249055303
H         5.34008325661590    3.18490170809731   11.06788059071142
H         4.87512306965232    4.44337711689980    9.92008831132402
H         3.69966014162650    6.68092554470078   14.21302526510018
H         2.19222168049880    5.82373489907433   13.88110379142108
H         3.91062692784493    4.27137779132437   14.77934238202104
H         5.95082810812408    3.80302236791703   13.44219854991272
H         5.91114319375078    5.49203050731905   13.95456760968141
H         6.53879521509626    5.31036672140411   11.55756921161626
H         5.24784514750674    7.29271451428793   12.31568905249564
H         4.82313207981900    6.86383065100636   10.65627144748125
H         2.78391137109375    7.32969710694871   11.99621116814592

