37
CSD_code = BUSWOB | q = 0 | S = 0 | Stoichiometry = C12H12ClN7O4Pt | MND = 6
Cl        2.39464103706676   -1.78256587889726    1.36263288094597
N         2.05212249544264   -0.61120155011707    4.35240896065407
C         0.88553690848283   -1.44457902937165    4.47957958718765
C        -0.28043496648814   -0.61596160958209    3.93901961163586
N         0.20230666364654    0.08478163479800    2.75235322019769
N         2.73845708225723   -0.23667611268510    5.31177717526981
N        -0.52809742482811    0.49797120553219    1.81317572670400
O        -1.75994028272371    0.34825805205810    1.81874767404574
O         3.62417112275737    0.60448205343727    5.14444973674267
N         4.21400754937178    0.53793954030409    2.13523563027197
C         4.58081578614104    1.33963625976764    1.12370748380681
C         5.92505950178766    1.48923014741561    0.78842836600402
C         6.88705505690118    0.80081331571465    1.50547256294399
C         6.48184927951025   -0.05423388974026    2.51717136694565
C         5.12890287167219   -0.15945035248104    2.79260827677346
N         2.26553060294311    1.48323489287907    0.57077256839360
C         3.49685843059497    1.96756686355998    0.35395797031972
C         3.70486054768468    2.97442003399573   -0.58667632467316
C         2.63106640001408    3.44625938527175   -1.32184879106016
C         1.37651690223154    2.89598426005693   -1.11230931548266
C         1.23812709021952    1.92037137218285   -0.13755316214766
N         2.06289010620216    2.09991479188676    3.40835800409518
O         1.26387577973751    2.23267987377646    4.29642603378582
O         2.78733522816192    2.95332449460589    2.94889001544912
Pt        2.16175896405868    0.35780306589991    2.48746276683231
H         1.03256884225569   -2.33499479273996    3.85817065046664
H         0.73886491783663   -1.72936117199972    5.52324652184192
H        -0.60244141976841    0.13096840119029    4.67442254454506
H        -1.14123623820683   -1.22580426979818    3.64309815897204
H         6.21490603520607    2.12348804314136   -0.03255783678609
H         7.93264048988455    0.91651354035312    1.26449467554265
H         7.19324266531134   -0.62996834467492    3.08564748653070
H         4.77865679693657   -0.82732558144951    3.56631056842684
H         4.68461215935593    3.39872318700973   -0.72855930507985
H         2.77427884868011    4.23182646334562   -2.04813626242288
H         0.51737529633644    3.22274612358488   -1.67462904922625
H         0.28005887331892    1.47198558176753    0.10334382154200

