45
CSD_code = BUSXIW | q = 0 | S = 0 | Stoichiometry = C16H23CrNO3Si | MND = 9
Cr        0.65743962746778    2.33400780619646    3.05865357034981
Si       -0.65545395314380    6.31583640685237    1.03629894692219
O        -0.19431550238400    4.08815198581969    5.30495085887361
O         3.24078043430297    2.67416729748300    4.49508781422203
O         0.35509793294614    0.40547492356523    5.30330680629356
N        -1.23513128836646    4.73761631964667    1.57316523833444
C        -0.54382811164927    3.55449012341167    1.46478212362510
C        -1.17076791986637    2.30066212978557    1.68349274842800
C        -0.46157930074616    1.10449664027855    1.53514964580211
C         0.88478352267564    1.10224547662691    1.14253702857459
C         1.52398260484485    2.33211691211899    0.96591949305560
C         0.82530284104959    3.53690437098636    1.12153284528871
C        -2.47740826727470    4.68881283985980    2.32374540744530
C         0.27749067863127    6.14303734857856   -0.62570671495694
C        -2.22181688352948    7.32747254831217    0.62478971650812
C         0.37638530245986    7.22806714792207    2.39465620729058
C         1.68401270428339    6.50393423620331    2.73099522314052
C         0.71559659527578    8.63589995147542    1.89310035610130
C        -0.43293526375847    7.35109086486424    3.68978957486962
C         0.12167556618133    3.43514493856370    4.39910215495214
C         2.26323100883475    2.54794947189996    3.88832758287877
C         0.45151241799352    1.12133313052488    4.39854891628462
H        -2.23226703978946    2.24759911058868    1.87908579278841
H        -0.99400908730857    0.16430113763434    1.62867456965976
H         1.40121126793871    0.17200490360084    0.94451977058792
H         2.55265421731558    2.36182009206022    0.62368446492038
H         1.33295473775265    4.46449380026482    0.92073760749280
H        -2.78480102759048    5.69685344237103    2.57404069378614
H        -2.33609147948519    4.13326640421351    3.25423665662889
H        -3.27786191764904    4.22334460443889    1.74242254558850
H         1.35410870019925    6.22464595473007   -0.51557451603753
H        -0.02845394006940    6.93254203394897   -1.30461482789416
H         0.06594952854439    5.19693661341303   -1.11451757035828
H        -1.96147589157069    8.17988917668153    0.00637228535675
H        -2.71995075572113    7.71644594407902    1.50623975939107
H        -2.94551938204379    6.73611489531154    0.07252008692806
H         1.49299510883978    5.51247820505404    3.14078644184807
H         2.23608224659928    7.07063385276667    3.47936600519037
H         2.32233558584531    6.40989958763819    1.85461058951250
H         1.29943569525820    8.59337449157354    0.97663305214395
H        -0.18874001466625    9.20501310458411    1.69417090842749
H         1.29647316701315    9.17269913825342    2.64133364192888
H        -1.36851032021011    7.88030973778997    3.52334882997196
H         0.13746032437819    7.90740851513903    4.43193982701556
H        -0.65183446980771    6.37151238288901    4.10595784083983

