59
CSD_code = BUTJOR | q = -1 | S = 0 | Stoichiometry = C25H24N3NiO6(1-) | MND = 4
Ni        4.31418820610738    8.53853973482457   13.99010881367917
O         7.75896525427273    8.76795194124236   16.05217838876418
O         0.99528270725569   10.41790651061091   15.25899045191229
O         5.16093291240788    8.36205593476999    7.79169763562054
O         7.53876800519757    7.70039269834718    9.64648693875423
O         2.46969537882110    9.23603344843067    8.90134313614402
O         4.24495580531810    7.45662240711898   12.58297593377631
H         3.36682671185860    7.39260714882746   12.19168599480360
N         6.21573835846981    8.18081166403491   14.42255381277848
N         4.38547424471222    9.51996750381583   15.45891393015307
N         2.44072977948700    9.18822134210233   13.93562974727865
C         6.63598707005265    8.78987153816459   15.54859961034011
C         5.51851198682692    9.58364282345697   16.16072068669057
C         5.59378493169536   10.29456542514992   17.34956315615848
H         6.53376220602740   10.32027183608770   17.87885072477439
C         4.45818106440999   10.94171642116132   17.81530709606120
H         4.48819907668934   11.50517937368387   18.73762401269197
C         3.28048257771635   10.84910419711086   17.08703580787104
H         2.36369001045742   11.32054655406654   17.40601788822716
C         3.28112013116073   10.12320159692146   15.90539780742676
C         2.09286776463895    9.92126830018304   15.01090484814299
C         1.45527609183272    8.91638678834082   12.98276473188422
C         0.21463175428545    8.37991883576227   13.33153601403538
H        -0.00605511687409    8.18737973179122   14.36985625458093
C        -0.71671570634362    8.09846882544392   12.35112973552741
H        -1.67478868492924    7.67963957840026   12.62875995791981
C        -0.43499011797163    8.33514817012488   11.01614795111079
H        -1.16619079483625    8.10123631742754   10.25361362232556
C         0.79006200415907    8.88306717828808   10.65505242505429
C         1.72003712003699    9.17626552547411   11.63679313764725
H         2.67445824257911    9.60761972705284   11.36641688297978
C         1.09648314602249    9.18220109517865    9.20363199050815
H         0.58845551929636    8.44539519022316    8.55816020472319
H         0.71275640490617   10.17732363718761    8.94874934407657
C         3.11696581121756    7.98360053294178    8.98640137265760
H         2.89347719150969    7.38484562849316    8.08981597332098
H         2.77222753070616    7.43765855119250    9.87288861413144
C         4.62173047940494    8.19108497831782    9.09331005614244
H         4.81929398805310    9.08102326476677    9.70239274538061
H         5.07524980124216    7.32868371979365    9.59355041021549
C         6.49964118856436    8.77564578152624    7.77960982979246
H         6.64063176752233    9.66022606760343    8.41646622793134
H         6.71413367865047    9.03527253950281    6.73907950497252
C         7.47928602811831    7.69154526521930    8.24684806023458
H         7.13210276932615    6.71298794510336    7.87683949842689
H         8.47945082084460    7.88233140825583    7.81900246623461
C         8.20525359107282    6.58945131159730   10.19068470353082
H         9.27012073021847    6.60615595131635    9.89323656242059
H         7.77010760391120    5.65845526508705    9.78055643481166
C         8.09190231706542    6.56227696126358   11.69493785384970
C         8.88371073641011    5.66550339640778   12.40525464814453
H         9.57666201131016    5.02212192433444   11.87798069558203
C         8.77326864665129    5.59522033752456   13.78190926634155
H         9.38160355400141    4.89031617218363   14.33346811334977
C         7.89253670178889    6.41534738247757   14.45957508150504
H         7.81177174132311    6.35358837643215   15.53349213975411
C         7.10480969955168    7.33176469478049   13.75982949937169
C         7.21188830746528    7.38716784923739   12.36834020075916
H         6.58210925832363    8.07359569383371   11.82543136671611

