43
CSD_code = BUTNUA | q = 0 | S = 0 | Stoichiometry = C17H21Cl2NORu | MND = 9
Ru        0.83121889221946   25.18629508438515    3.58969420210319
Cl        0.15474268847411   25.22871799253297    1.34375838854122
Cl        2.97660797292750   25.74754768010706    2.84411612422032
O        -3.50859073739848   28.27884222388849    2.97556943174570
N         0.40589608526539   27.11883637780152    3.56382032582991
C         1.71271931373785   24.27642438646077    5.49328908051920
C         0.52576341913341   24.94537945640245    5.82791880111489
H         0.53281234853153   25.68242202573610    6.62515925385411
C        -0.71563141931512   24.58764952281382    5.22665678231417
H        -1.62322372246371   25.06468013904107    5.57771703507371
C        -0.78362147565946   23.57997897347053    4.25880934544862
C         0.43496406680333   22.94177789345480    3.87487612710237
H         0.39837000807329   22.13457187974581    3.14979693398141
C         1.64806589498661   23.26592193304212    4.48784505056441
H         2.54966273260126   22.71512457631537    4.23821747641947
C         3.02054641809889   24.58818003971973    6.15044223910528
H         2.89716559767967   25.31604245810098    6.94911554101503
H         3.70523246799949   24.99680529299957    5.40389972374462
H         3.46785282635878   23.68238624619780    6.55806667651440
C        -2.10049943195254   23.09670104536509    3.69953251728458
H        -1.88533747831223   22.32346716860194    2.95406364182296
C        -2.87212069950951   24.21576064556594    2.99894541470614
H        -3.78255530893099   23.81631194111237    2.55959395848805
H        -2.26182225664870   24.63440891034800    2.20037798540586
H        -3.15035722265051   25.00452842288645    3.69452831601619
C        -2.93509716188069   22.46645112592953    4.82000011453487
H        -3.84244687518255   22.03595707545004    4.40411344998828
H        -3.21893501910250   23.21207055665706    5.55927102061802
H        -2.37690159595545   21.67754750338604    5.32096312392540
C        -0.82431674552778   27.49748284505489    3.21231713119975
H        -1.52877000539625   26.72021559101467    2.93954283221018
C        -1.22772527721966   28.82595743408562    3.14820977345282
C        -0.30061931731972   29.81807282833322    3.46359237293467
H        -0.56167978192903   30.86347771447834    3.42722831824750
C         0.96784158808905   29.42052848183901    3.85392967391048
H         1.71749120587076   30.14813633607462    4.12086267560095
C         1.28297388394764   28.07478605750317    3.89912310563011
H         2.27448698105722   27.74073214121228    4.18078243797819
C        -2.64518975000709   29.09507827753001    2.76264711592476
C        -2.90992330436381   30.42328745680877    2.10926154424710
H        -2.16785396221110   30.62226912831855    1.34026144987045
H        -2.85567630953647   31.21279334302454    2.85715943358594
H        -3.90651953338265   30.42299378721777    1.67602405319697

