65
CSD_code = BUTXAP | q = 0 | S = 0 | Stoichiometry = C21H36I2N4OW | MND = 7
W         1.97845517641656    4.22881948262352    2.52818302265180
I         3.80953237703106    4.10430274181646    0.33696830215821
I         3.94209161333147    5.63441744683326    4.02435928933492
C         0.48985861970295    2.90390059774782    2.51064592736185
O        -0.32796074790695    2.06341500216514    2.77010718639011
C         0.63060000758496    3.65599905240228    1.13018143413245
N        -0.03806677390898    3.55812999777909    0.11865103142509
C        -0.99990647486760    2.74136839982156   -0.55488199626610
C        -0.48440082441637    1.29793633627412   -0.59031125787721
C        -1.14806642341878    3.29634318710906   -1.97276165672162
C        -2.33102293883431    2.81940094451282    0.20241508816376
C         1.50739028174333    6.14122627186919    1.80163564013185
N         1.68153528294780    7.13963400609392    1.22762163151921
C         2.06426504484557    8.25697677606061    0.46032369482060
C         1.73200913278329    7.95209838026132   -1.00281261867326
C         3.57454901617413    8.42734487177109    0.65520437853342
C         1.29883828899281    9.48084561259428    0.96689905707948
C         3.09011624620096    2.55967316742974    3.07852913634139
N         3.92626532690669    1.76801990367463    3.26551323281471
C         5.08560128434974    0.96824776170521    3.31170625886140
C         6.28682360593105    1.91927390918620    3.31039551022470
C         5.04346470107244    0.12618992513849    4.58811275332291
C         5.08734267526776    0.08555895392330    2.06018330359112
C         0.68878284653728    4.47224537929399    4.08663210634186
N        -0.12009224811339    4.55252591007069    4.93672284368399
C        -1.17692601465925    4.22724135678448    5.81857167719544
C        -0.69849302334949    3.08136068284634    6.71691908029184
C        -2.38038062120697    3.78679920678398    4.97793496441486
C        -1.50815305272524    5.46950585957261    6.64789502604339
H        -1.18151341075782    0.66686956416790   -1.13558608176318
H        -0.38088371480200    0.91019633057711    0.42138260391458
H         0.48589449552895    1.25757552502710   -1.08178217906677
H        -1.86431653825220    2.70248810102895   -2.53412162307328
H        -0.18952049381801    3.27083953371187   -2.48565297124125
H        -1.49458825955780    4.32678951399057   -1.93966596875344
H        -3.07683304566480    2.20800547594766   -0.29902184307300
H        -2.68588075743682    3.84757955485786    0.24135343845170
H        -2.20715394960672    2.45313159821322    1.21947301057884
H         2.04746722078436    8.78178558460906   -1.62918182173564
H         0.66176417801124    7.80167402510802   -1.13118092172421
H         2.25205107378166    7.05296482371096   -1.32698921544851
H         3.92013548808826    9.29208920872303    0.09602730575339
H         4.10514903437542    7.54693246544149    0.29862783285412
H         3.81283022944531    8.56964371783288    1.70737412731080
H         1.58802686699860   10.35543371092498    0.39089522060782
H         1.52622170287532    9.66305021780536    2.01516136785458
H         0.22549490851097    9.33332994080632    0.86254086843345
H         7.20857987339873    1.34624236529897    3.35614001698687
H         6.24595292612500    2.59071881490105    4.16572107232471
H         6.29264547397234    2.51979600120916    2.40302073390666
H         5.92840762084043   -0.50193726912194    4.64041118969175
H         4.16143301146263   -0.51152878989301    4.59809413986355
H         5.01956690504577    0.76876619509127    5.46588067687191
H         5.98607646502284   -0.52461010080790    2.04605152908033
H         5.07099818088864    0.70295178507362    1.16413515315955
H         4.21810074361538   -0.56944332985793    2.05000729904646
H        -1.48359703326822    2.80911736642105    7.41733495188740
H         0.18431578328313    3.38195087025887    7.27738960025292
H        -0.44846249120201    2.21156938790235    6.11261531073567
H        -3.19892180765529    3.49397511488713    5.63013010911722
H        -2.10978133721217    2.93949989928027    4.35095139891458
H        -2.71561833060795    4.59991141469971    4.33681109526081
H        -2.31495469012602    5.24741039506084    7.34114110645099
H        -1.81841651211451    6.28680638069375    6.00022978326249
H        -0.63652219444550    5.78962348219485    7.21443763595671

