33
CSD_code = BUTYUL | q = 0 | S = 0 | Stoichiometry = C12H12N5O3V | MND = 5
V         6.97061232451504    7.07656800956886    9.41786288531158
O         5.77731895162485    6.28206808349710    9.95483096839939
O         8.34851199892388    6.60707934341119    9.89201388643471
O         6.78126347337352    8.73703892459489   10.28557241423337
N         7.07226034031253    5.95602745832138    7.77855443090557
N         6.77181643852416    8.39752978823390    7.89088960446421
N         6.62242130126515    9.66730548665017    8.22667201512250
N         6.48963716984959   11.30225977199141   11.44023864343183
N         6.33720237842350   12.60493578108288   11.58619248560331
H         6.30718679107060   13.00126642235862   12.51349070950815
C         7.23663621385981    4.64594670794120    7.85366795041661
H         7.30725042132774    4.24158263302700    8.85710560703036
C         7.31278281905329    3.84883568903772    6.71955255583404
H         7.44703586696703    2.78369870886823    6.81567584606289
C         7.21338652611036    4.44652103905098    5.46932291908031
H         7.26936555330054    3.85202598402067    4.56964932911167
C         7.04117681488880    5.81487437811332    5.39174287711473
H         6.95976482423065    6.31433144771812    4.43934350526258
C         6.97328348473132    6.55304544828511    6.57807034590470
C         6.79675568606038    7.98745085657432    6.66327083406116
C         6.66027576453885    8.88002102589519    5.46945853629937
H         6.54783188768670    9.90564548915743    5.81310005427120
H         5.78705849518809    8.60087392197423    4.88054475041098
H         7.54243650218233    8.80817221690614    4.83416587040224
C         6.64153778104519    9.75067276374148    9.56371078931005
C         6.49136887483349   11.08583295098465   10.12987721953582
C         6.33342396460868   12.30453503393259    9.42903288896826
H         6.29944996584904   12.42793186571738    8.36791453836920
C         6.23698217535065   13.26704470736076   10.40504398141973
C         6.06006333888532   14.73898884337648   10.33448159966703
H         6.88535459598356   15.24928606049856   10.83071948967142
H         5.13260267869404   15.03818443538152   10.82276942577698
H         6.02594459674038   15.05701872272571    9.29666104260467

