41
CSD_code = BUTYAR | q = 1 | S = 0 | Stoichiometry = C16H18MnN2O4(1+) | MND = 6
Mn        5.25266526349449    2.62380927237798    4.74797585795466
C         8.03498597420650    2.92278307563946    4.89177191388850
C         9.08721460147760    3.62190305696092    5.51470308262366
H         8.85784516307790    4.56371990774087    5.98956677361571
C        10.36139021261385    3.10757666116517    5.53128618925514
H        11.14844400097985    3.65254403611676    6.02919121685753
C        10.65033771781317    1.89325635069946    4.90540203994385
H        11.65692808650402    1.50801784395155    4.91908293292663
C         9.65153870469851    1.20166572238737    4.26461698747823
H         9.86885056559508    0.26878623863793    3.76620880878722
C         8.33128095497675    1.67941542054928    4.25139517682400
C         7.31334761416618    0.98344185083686    3.53081953004484
H         7.64437653257188    0.14555620127214    2.91613733175244
C         5.14294915956973    0.59288013814606    2.68158143120374
H         5.54635639003377   -0.37311231023860    2.36026401079299
H         4.93223491615105    1.20675104417407    1.79777094639195
C         3.85409680953311    0.41721277808949    3.49252008681275
H         3.01101858040475    0.14795941397663    2.84769846564266
H         4.00255395402266   -0.37197066157739    4.23918351998348
C         2.43242909446638    2.12994260975222    4.28669766050271
H         1.60961893580081    1.58801321201505    3.81907472827983
C         2.07990204361200    3.30026743472983    5.02567263281268
C         0.76243018134926    3.78557529000313    5.01125696928458
H         0.03511623321608    3.28866084231184    4.38677598583240
C         0.39944496990829    4.87632822338588    5.76298257205882
H        -0.61244992772489    5.24640404972100    5.73194063325561
C         1.34389978265411    5.50046118689091    6.58045451250771
H         1.05571456407627    6.35393484984837    7.17449021486203
C         2.63573533838742    5.03626614338998    6.64385314766987
H         3.36958457014644    5.50836403072563    7.27923779600775
C         3.04691235562477    3.93817933922771    5.86341604866897
N         6.06603281237074    1.31617332370940    3.52972653378810
N         3.63343554178985    1.66697230142866    4.18819519287402
O         6.83951706512805    3.42943686205007    4.83064639737604
O         4.25399730026473    3.46503814743377    5.95826704194067
O         4.81298230002611    4.15848018340646    3.18100503878562
O         5.74827114917078    1.25342952024824    6.44620908528212
H         4.15095625034918    4.79854314389818    3.47426044206179
H         5.60358244701390    4.66695936454465    2.95130623833632
H         6.66939469944203    1.33713782612503    6.72704926898177
H         5.20547709103713    1.44523607424895    7.22400555605009

