73
CSD_code = BUTYEV | q = 0 | S = 0 | Stoichiometry = C24H12CdCl4F12N14O4S2 | MND = 6
Cd       -0.17309816718493    1.03865303676789    3.51445647819482
Cl        1.39658706937189    3.49869466251666    3.01731810876975
Cl        4.48516990811744    1.35543236044218    6.89783482993960
S        -0.17880434984524    2.96233347282452    9.05362599393044
F         7.44509850251170    2.76203986054407    2.67765044405199
F         6.12652357661663    2.77373777921264    0.98079747971559
F         6.66058896611803    0.91282886808822    1.92173284022195
F         0.03577268514385    5.46165868752946    8.06224979460379
F        -1.62694943160020    5.23948111619590    9.42404936008437
F        -1.76152186369874    4.46425378687304    7.41316420187320
O         0.95739903209097    3.40109124790938    9.85942071230190
O         1.74737849217922   -0.52932354209732    3.95799312917551
H         2.17559897412947   -0.43341198301114    3.09178117658699
H         1.24467680457637   -1.35133164088638    3.90100829826687
N         2.69758740699190    3.75863226306892    7.69151139820942
H         3.66040161173540    3.77781538790854    7.40393181816609
H         2.48386023711505    3.90877301722013    8.67215486108941
N        -3.25631509263579    0.51716375987402    6.33737528283643
N         1.94677022665136    2.52049372371163    5.76570569714529
N        -2.37014305235681    1.22404554210222    7.00459337587031
N         0.80477699245620    1.90923820207775    5.36074873978515
N        -2.80502066393421    0.19492999790212    5.16977705594832
N        -1.58610678990825    0.69066553578464    5.02655382276021
C         6.34178025855736    2.19304474290604    2.15967535531061
C         3.95029930145110    2.80014911769689    2.66557188688652
H         3.81088293947785    3.09694519696520    1.63784057623814
C         1.81136368997114    2.99426116109049    7.03773734483149
C        -0.94279633020859    4.64305435549959    8.45479951083167
C         2.89906719307549    2.89229029454306    3.56459560597635
C         5.17064969330949    2.31193853410717    3.10431582773182
C        -1.32569841083661    1.32820482216750    6.18721337100995
C         0.51840173895813    2.65258912871454    7.44905249210663
C         5.34654415115415    1.89703656530688    4.41709795905788
H         6.29395938655364    1.49626218405227    4.74207200062651
C        -0.04964431951514    1.96058641006078    6.36643116063913
C         4.28477833156814    1.97327713220728    5.30341810427542
C         3.04938046578342    2.49542304215635    4.90138177407913
Cl       -1.70764239909710    3.69894463010386    4.05121320645386
Cl       -5.79450305005382    1.10708000347274    1.71075137147035
S        -1.71323502765084    2.95481209810874   -1.80606471664972
F        -7.10746114607000    3.83928386602175    6.38374697156232
F        -5.47541263478418    3.22340396955325    7.63554737570605
F        -6.85624427195691    1.76356252285456    6.86233082831951
F        -1.62571891203101    5.37143755791494   -0.62696281633703
F        -0.15322192942920    5.15699524419617   -2.19552184480985
F         0.16719413984857    4.23274470467537   -0.26990766253824
O        -2.96360428952129    3.51199526511616   -2.31398952490122
O        -1.07806225849598   -1.38850993764861    3.08422737241886
H        -1.79892274635860   -1.30362999774550    3.72384289840836
H        -1.49287308689351   -1.53071204200254    2.22831610588509
N        -4.27982194357358    3.55971618039402    0.19681810385464
H        -5.14291967130571    3.54400145594276    0.71052369545293
H        -4.29871846935825    3.78058111393546   -0.79199384978047
N         1.96541605784964    0.69906423331869   -0.07341950588713
N        -3.05542753299192    2.30063489782472    1.84027740507383
N         0.83027879009363    1.21031756738021   -0.49245970518711
N        -1.84600644068399    1.68693820787726    1.94358378618848
N         1.92593498737133    0.46253351507535    1.19515804858592
N         0.73680021084220    0.81598483733628    1.66263703500099
C        -6.17804269626447    2.87421428643573    6.56113485041556
C        -4.05629336174178    3.24712468962147    5.27292812534880
H        -3.63249993089280    3.73829560873885    6.13369337207626
C        -3.23843527980912    2.81398896774182    0.59094266722244
C        -0.75478420542514    4.53026449941671   -1.19016590258342
C        -3.31159796578954    3.10203674735325    4.11378742603993
C        -5.33679154673288    2.71784039120285    5.31819644971990
C         0.06327563414639    1.28055080233997    0.59247839436664
C        -2.08668487732721    2.49680167411735   -0.13272151779328
C        -5.88832083147893    2.06690932103702    4.22400919468320
H        -6.87869068773682    1.64327291015322    4.27989338452900
C        -1.26370709348323    1.79476591297247    0.76080143177567
C        -5.13899949710595    1.94067034130844    3.06651010927467
C        -3.84465520119089    2.46022612189718    2.99001956719355

