33
CSD_code = BUVBOK | q = 0 | S = 0 | Stoichiometry = C9H20AuClN2 | MND = 2
Au        1.64014662693695    7.82263155698498    0.46581650570977
Cl        0.23792109905893    7.89494163714289   -1.30197865423937
C         2.90529237120749    7.75433778354136    2.06324652182619
N         3.83650781439462    6.82279442328654    2.21266111323941
H         4.41846747250998    6.86640104092921    3.04874948951712
N         2.87027327918320    8.63272567102593    3.05543808542536
H         3.53877801763237    8.51321889738698    3.81599896433696
C         4.17704827708147    5.70324563232057    1.33057317478769
C         2.98680173155555    4.75204213634794    1.19277905129660
H         2.15393440872865    5.25278509567983    0.70510785743511
H         2.65972718392514    4.40776601346198    2.17155667340568
H         3.26994351077842    3.89022091750471    0.59566957783555
C         5.34148211365596    4.96764680836293    1.99966443207006
H         6.20191652953586    5.62565937489029    2.10898559580675
H         5.64135673720867    4.11792212305344    1.39348934964276
H         5.05124222328985    4.59698510039198    2.98134546917080
C         4.62298548270370    6.21997895087137   -0.03860179441189
H         5.44514921747460    6.92405161631975    0.07024286624771
H         3.80100594497086    6.72243242256586   -0.54255216471144
H         4.95271011569409    5.39032615174099   -0.65701393046845
C         1.99325972362898    9.79284991231257    3.23541313233462
C         2.41423229101454   10.44935956256444    4.55317804426702
H         2.29392146477713    9.75750294901709    5.38516118300747
H         1.79671541416245   11.32129717623814    4.74760580199747
H         3.45264032493775   10.77342059077652    4.50849630270224
C         2.18380660004627   10.78790716891101    2.08908538685866
H         3.23003369366948   11.07366423158177    2.00380339748892
H         1.59158246965681   11.67971627444538    2.27179535692545
H         1.86666169197095   10.34857420214167    1.14647564670043
C         0.53297916354180    9.34735457050621    3.33315925009841
H         0.40987236086331    8.62021779999413    4.13293802714148
H         0.21008553597391    8.89369204094231    2.39928266846818
H        -0.10158089178534   10.20433016676069    3.53912761807836

