37
CSD_code = BUVBAW | q = 0 | S = 0 | Stoichiometry = C11H22AuClN2 | MND = 2
Au       14.97912077346597    5.43156713679074   -2.84816606977968
Cl       15.82317804939045    7.38874003520259   -2.11098472408608
C        14.18113018226749    3.65986328768797   -3.49826393206787
N        14.22327534217317    3.28954184797136   -4.77354982745851
N        13.55112477334495    2.86882220842104   -2.64212869592349
H        13.09721710777010    2.01595898867902   -2.94884065672971
C        14.92919198758667    4.09830787627990   -5.75096475075732
H        15.39038240500990    3.43081772106470   -6.48338779159391
H        15.71830962322365    4.64951097520779   -5.23593002915023
C        13.99909509893601    5.08803562252964   -6.44528050125090
H        14.55294829223093    5.65565669418740   -7.18724463282611
H        13.58939699761762    5.78065391672948   -5.71421486184521
H        13.17726700339266    4.57619861115737   -6.94168542472657
C        13.59239536094773    2.09092329484963   -5.30887307201551
H        13.42585401524813    2.24832220348621   -6.37603744955776
H        12.60761226061011    1.95036816155277   -4.85055443550320
C        14.46154602795249    0.84992616474742   -5.10829259342702
H        13.96339407670090   -0.02535919247298   -5.51728674110835
H        14.66385118283954    0.67702546607401   -4.05393685246677
H        15.41468276720003    0.97412847598042   -5.61647986026037
C        13.37657710218182    3.12653040823788   -1.22971616926327
H        13.97655439344941    4.01073308181254   -0.98790331172847
C        13.87132933086009    1.93455171849490   -0.40887239620239
H        14.92166291045275    1.74460951766029   -0.63941069578296
H        13.29635025137807    1.04286575074008   -0.67613103283450
C        13.70284883170036    2.22052742254553    1.08051645526935
H        14.04896925242027    1.36347557440024    1.66103311745271
H        14.31747763060177    3.08083648611939    1.35177593671596
C        12.24231077781654    2.51796106757622    1.40553216432947
H        12.13780420227301    2.73939025222930    2.46859602097075
H        11.63368295025172    1.63711157808066    1.18628508735402
C        11.74337882224426    3.69956201488615    0.57948588456103
H        12.31485481481892    4.59249042060338    0.83919722101926
H        10.69332466746540    3.89587552562211    0.80289856941644
C        11.90814830214233    3.41769707561083   -0.91085796566910
H        11.29557246033905    2.55573590771765   -1.19100156509379
H        11.57547997144103    4.27733670148243   -1.49602441800955

