45
CSD_code = BUVCUR | q = 0 | S = 0 | Stoichiometry = C15H26AuClN2 | MND = 2
N         9.46828948174460    5.63907525119676    5.63427854508801
H         9.17785499520634    6.26389649915822    6.37730260815543
Au       11.09617012219483    3.46068389195718    4.41467305771304
Cl       11.68249545413123    1.95664622394100    2.83173962170319
C        10.50133439413676    4.83025418071734    5.82671753963047
N        11.11661107626442    4.89900193436568    7.00447118516021
C        12.27337362259918    4.06805176449160    7.28614720366408
H        12.96702355394001    4.64035529623802    7.90762420817793
H        12.76674236686019    3.83189997597899    6.34125582848625
C        11.88196825821960    2.76922637070717    7.98373692051467
H        12.77136040000162    2.18409111138268    8.19823931604835
H        11.23204074368852    2.18663252437924    7.33537316744855
H        11.36047982544676    2.96382247831480    8.91861378362347
C        10.71694054610806    5.76938264469916    8.10316682579727
H        11.09902548859603    5.33458765155338    9.02846576805723
H         9.62519638337675    5.78935148591231    8.19055146867514
C        11.27075804405432    7.18484465640147    7.94261034878466
H        10.95482338896625    7.80667678773738    8.77638814024358
H        10.92725867912668    7.64008376608531    7.01677989436029
H        12.35756517417741    7.16137568740702    7.92118188579449
C         8.62637266056631    5.76129373223955    4.44214534207049
C         7.87740078167558    4.45678140619274    4.15364441675113
H         7.28628664905801    4.17450032470590    5.02898782524681
H         8.59612113545340    3.65777456178526    3.96045774095556
C         7.59765245918496    6.86078303151313    4.73080437237433
H         6.99902192420596    6.58677031141965    5.60465906532218
H         8.11257868301198    7.80118288108568    4.94856785903699
C         9.45543611627770    6.17712664172311    3.22333768714265
H         9.98026745884926    7.11097281903092    3.44157644260431
H        10.20428071521917    5.41140034552929    3.01211331573385
C         6.97145626212877    4.64479230182237    2.93839294234218
H         6.45257423059666    3.70316791942799    2.73253650691496
C         5.94705442243022    5.74080482980860    3.22825212317570
H         5.28810745446703    5.87189355932936    2.36802081992151
H         5.32835652071398    5.45806969604645    4.08327773526011
C         6.68022037423103    7.04819918019023    3.52151794944185
H         5.95226315487646    7.83634930271815    3.74495118667009
C         7.51299690749325    7.44868822808107    2.30546171438564
H         8.02261999581853    8.39623574501812    2.49589260396493
H         6.86118588153384    7.58782574393821    1.44107869327202
C         8.53726185877837    6.35255051377278    2.01546811509083
H         9.14138624348515    6.63606852522042    1.14772880673337
C         7.81977621876110    5.03474129137155    1.72943891370937
H         8.55236516006382    4.25219620382529    1.52474548355571
H         7.18404473227763    5.14139072158805    0.84832502119479

