68
CSD_code = BUVCEC | q = 0 | S = 0 | Stoichiometry = C27H33CuF3O2PS | MND = 2
Cu        1.91838417581315    5.75120197028582    4.31423646565727
S         3.66521083847658    5.07017673045860    3.56547220792634
P         1.74312823532272    7.60085348432565    2.68402108307690
F         1.45392004911226    4.40761178867727    2.31307488850422
F         2.24287033618443    2.91177083753058    3.61762116343113
F         3.20941067519019    3.31637279681415    1.74949165239231
O        -0.86659909567590    6.19255189777835    3.92895232679306
O         2.36870591027821    7.59627306209298    6.92552267507584
C        -0.54463414266778    7.77475218329149    1.00509159980732
C        -0.58126745163810    8.61535511060071   -0.27930293416345
C        -0.03866689890925    7.79934874571741   -1.45019766746582
C         1.38616197458307    7.32554243358356   -1.17475636413318
C         1.43547542093944    6.51195010581301    0.12583035660440
C         0.87292756629224    7.35478268367986    1.22753252190263
C         3.29326019723130    8.44154695441673    2.66543727144098
C         4.22988256687026    8.21826979217155    1.51219800998139
C         5.31002036256749    9.30385598593735    1.54262959960415
C         6.04956702109179    9.28995245271675    2.87568415042639
C         5.06779819169314    9.49917746134492    4.02347493174654
C         3.99756183178087    8.40734281680651    3.99929588763460
C         0.78253276358319    8.67320172666231    3.78535832601524
C         0.48604992079835    9.98369993626981    3.43885431055028
C        -0.15161970529190   10.80595985700430    4.34974969410012
C        -0.46675554465640   10.32764700408636    5.61236096086295
C        -0.14914539626663    9.02871516009728    5.96849608314305
C         0.47834107555634    8.19246191948919    5.05396567956095
C         0.81324776507611    6.79942339020629    5.38697647385257
C         0.09082124651845    5.79244620150510    4.79043132285423
C         0.32978056045498    4.46279768298409    5.16126266231706
C         1.27511046078635    4.17365790263244    6.14937936634370
C         2.01060082579390    5.19204304120816    6.74792039767321
C         1.77102526360547    6.52166430724028    6.36413190948978
C        -1.64036160843635    5.20864391857757    3.26975184429547
C         3.53115911760922    7.38589250344202    7.70133931206852
C         2.64827618607448    3.92511369075230    2.80244995064183
H        -0.93313503118664    8.34236923409152    1.85140627083184
H        -1.18226968257926    6.89898764986773    0.84856952128645
H        -1.60587703518621    8.93308504142156   -0.48537691372104
H         0.03154742181087    9.50856259003617   -0.14317350046332
H        -0.05551861803358    8.40342645890425   -2.36035276023139
H        -0.68277875590392    6.93184193241301   -1.61405338028718
H         2.04193635662449    8.19403729768095   -1.08212355276263
H         1.74649636765336    6.71575155075824   -2.00550803603299
H         0.83357439689508    5.60771019808361   -0.01229616587652
H         2.45852941306772    6.20565044605766    0.35084263449628
H         3.68291067526755    8.26485926321801    0.56804605228841
H         4.71585755211066    7.23861172899691    1.58199053490718
H         6.01250740338215    9.14359181050198    0.72196262094538
H         4.83953614230279   10.27964383334332    1.40030468918603
H         6.54866632074177    8.32652251517596    3.00114337710663
H         6.81322665405718   10.07149626020800    2.88700763826236
H         4.58774697098690   10.47523918190020    3.92140896637171
H         5.59649190820315    9.47943328647370    4.97920027010564
H         4.48840574961571    7.43647895501234    4.14987896231728
H         3.28064355957097    8.56045820926177    4.81217351112089
H         0.76765528999437   10.34414518302338    2.46101279475977
H        -0.39450426203211   11.82408187519346    4.08346564459255
H        -0.95583733846323   10.97262024915821    6.32737709094752
H        -0.38330793446297    8.65959298300820    6.95660694132017
H        -0.26091941745587    3.65959888005499    4.74827288913882
H         1.42753407685592    3.14951129389927    6.45324560570375
H         2.72485481363082    4.95790898261865    7.51939014463046
H        -1.01486311883242    4.57388865643359    2.63865802436305
H        -2.34180167158045    5.76430862854735    2.65134454222481
H        -2.19864820642442    4.59647863367923    3.98432987213184
H         3.29762138990898    6.89824892454426    8.65252036426476
H         3.93222972536124    8.37890587258273    7.89548252557161
H         4.26680818825906    6.79529485763158    7.14840470052573

