70
CSD_code = BUVFAZ | q = 0 | S = 0 | Stoichiometry = C35H27ClN4P2Pt | MND = 4
Pt        1.45655125785777    0.29741298089628    5.44227622856967
P         2.57802022618346    1.16826982266134    7.29094143421986
P         1.63629531283503    2.37842664187610    4.57705855515920
Cl        1.22356762146900   -1.74965249186295    6.43452956682798
N        -3.65515332661375   -2.58404283476118    3.27428685200936
N        -2.30976360373070    0.77233780936437    1.13056497925915
N         0.40616809408232   -1.04978682731970   -0.13662602566068
N        -0.91939533544380   -4.48412122736688    1.90379145794466
C         0.47728528380947   -0.35581822579165    3.73665590129239
C        -1.02035142150335   -0.45508080748679    4.01857577413458
C        -1.58324449426443   -1.13089412513865    2.72985357119187
C        -0.37897587036761   -1.96510910855443    2.15653477755714
C         0.78543505788500   -1.73797793500990    3.16951893608617
C        -2.73791930267367   -1.95360656885706    3.01903648455368
C        -1.99203187474468   -0.09024046361933    1.80913292143573
C         0.03104908102749   -1.45834351217239    0.86212119319173
C        -0.69712439360487   -3.36931942516926    2.01177000889201
C         2.80908259785756    2.94831101520334    6.97446053536297
C         2.41059380179053    3.46203552635813    5.81337618503639
C         4.30577590468644    0.61152757017996    7.22778210091037
C         5.25137520381705    0.99587113363081    8.17235215729541
C         6.55503774371358    0.55155831374160    8.05156807371795
C         6.91737752650482   -0.26972857942209    6.99466074845927
C         5.97566950748697   -0.65447774111803    6.05398096248830
C         4.67056206844976   -0.21295219236657    6.16963151049103
C         2.18154541011593    1.10429889767680    9.05496191101280
C         1.46846622999523    2.12786966475250    9.67128417470715
C         1.11323606962574    2.01383830698472   11.00290652226098
C         1.44874292697548    0.87439270485601   11.71628561413794
C         2.13299520639629   -0.15960121402905   11.09596974705197
C         2.49474475069337   -0.05110999942753    9.76685078430295
C         0.09349233295211    3.22153442616751    4.14908516171425
C        -0.67261286901718    3.78700316918027    5.16548966910826
C        -1.91830188256971    4.31318270889948    4.87899242319968
C        -2.41330466248166    4.25885610944165    3.58505264924117
C        -1.66082265760653    3.68270961363352    2.57384712503067
C        -0.41011305655361    3.16263413446736    2.85203363358594
C         2.70694040556464    2.61834256793494    3.13510336604775
C         2.80324865875676    3.84590976116411    2.48805158589488
C         3.64194232530272    3.97684939933618    1.39684849685377
C         4.38180772407089    2.89144950094282    0.95245716019149
C         4.28939135082808    1.66961974253991    1.59944351726528
C         3.45403921489299    1.53331550660628    2.69289120337579
H         0.60493942341576    0.36508953625016    2.90589115690954
H        -1.21673111884383   -1.10734488695193    4.87434839452761
H        -1.49672416017685    0.51349262893892    4.18956403001691
H         1.75205128418117   -1.79733350500675    2.66654757242521
H         0.74156324665769   -2.50466134153305    3.94630010761295
H         3.30070840848776    3.54491928918390    7.73539590716064
H         2.55457355549076    4.50532254605574    5.55081714304639
H         4.96201460799052    1.62634718085166    9.00215241181029
H         7.29199871885933    0.84305497243982    8.78544654751148
H         7.93673919535635   -0.61558822464961    6.90937197484301
H         6.25820359827316   -1.30224995191917    5.23774242489209
H         3.90585222212266   -0.52428281722209    5.45669721381921
H         1.19312248456140    3.00859053041085    9.10571644273726
H         0.56766511625335    2.81238839216919   11.48419107361508
H         1.16697672785816    0.78775361919922   12.75501598614192
H         2.37915848409784   -1.05364467618285   11.64915696270813
H         3.01592554499196   -0.85728141879302    9.26843535881412
H        -0.28541485982946    3.80501621576434    6.17619537640317
H        -2.50918076442805    4.75696423101046    5.66670343068962
H        -3.39114619507093    4.66021537539793    3.36605501585413
H        -2.05185394937352    3.62236349900101    1.57030915396997
H         0.17632423896043    2.71089705522233    2.06366841675570
H         2.21222227996001    4.68459824415203    2.83056264161847
H         3.71586434071685    4.92585345857599    0.88679178307409
H         5.02915654097464    2.99893608919472    0.09522325185352
H         4.86331028344395    0.82581641588057    1.24743482860198
H         3.35645660063425    0.58587379369102    3.21347575706155

