57
CSD_code = BUVHUW | q = 0 | S = 0 | Stoichiometry = C18H24N6O6S2Zn | MND = 6
C         4.57079885463346    3.72541345533560    9.48441577992607
C         5.29216729288721    4.63108081185435   10.43407012850790
C         5.97086611414842    4.25995726570547   11.58353784971978
H         6.01406668959030    3.22036389219819   11.86930443034903
C         6.57970750185986    5.25232597353436   12.33774346650310
H         7.11429343700464    4.98730520068709   13.23786091834831
C         6.51177742380374    6.58345440473424   11.95147124880955
H         6.99302169126133    7.34010921180895   12.55267971557973
C         5.83019044562451    6.95593034398459   10.79785272885992
H         5.76905638593351    7.98644217732218   10.48593063382395
C         5.23088218570818    5.96227254323575   10.06003261396467
C         4.96538399299765    3.66973551002882    4.86503739139153
H         4.41442155045152    3.01984271561830    4.18009313861341
H         5.76264434298759    4.18071629893300    4.31064927386442
C         5.57214597986446    2.80476114747802    5.97130650701121
H         6.09073824694510    3.45939929970663    6.67666869148874
H         6.29343902495004    2.09890664813393    5.54054500313864
N         4.02530656401699    4.60481802978248    5.47478311665157
N         4.48708485301584    2.12966663599548    6.67632097561667
N         4.01302372595713    4.38704378653348    8.47071798997314
O         5.07210876711399    6.43052860397907    7.42731385492449
O         3.02829152638561    6.70015312151801    8.72691078886288
O         4.50925509578135    2.50933105877240    9.63742838077540
S         4.27363649967124    5.99239575006274    8.54731613449299
Zn        2.91675886846357    3.53729202549165    6.93993937422886
H         4.52840928466472    5.37393723276722    5.92087119020669
H         4.14403961625993    1.33879576331034    6.12796942554242
H         4.79983203982383    1.78042060432497    7.57889345713304
H         3.39562429618945    4.99561265975989    4.77793732911125
C         1.26276982376830    3.34975847122161    4.39546982736062
C         0.54124560919924    2.44441993241551    3.44563950350326
C        -0.13742331337218    2.81595290256018    2.29628814718284
H        -0.18043363652134    3.85562727317457    2.01078621963617
C        -0.74643416027790    1.82387610887216    1.54184088157157
H        -1.28099931416408    2.08921102651047    0.64180362917001
C        -0.67869864831247    0.49264211910565    1.92778335351647
H        -1.16009843664483   -0.26378081233707    1.32640736475706
C         0.00285320594419    0.11976202093008    3.08129499459587
H         0.06380541137108   -0.91084136950486    3.39294902297318
C         0.60234456629365    1.11313014724445    3.81935850764245
C         0.86827724803480    3.40417810377276    9.01495873977943
H         1.41916054586751    4.05407282305690    9.69996325773186
H         0.07114194665941    2.89297469375944    9.56932270601725
C         0.26129672300331    4.26917201688587    7.90882435128715
H        -0.25720405910562    3.61449795758208    7.20342711952928
H        -0.46011576969175    4.97483299464090    8.33970188059869
N         1.80849855305949    2.46934670085607    8.40504947497524
N         1.34619099152349    4.94455533619889    7.20383060192586
N         1.82044987071999    2.68782893095072    5.40901913340804
O         0.76111277360250    0.64428188092211    6.45201253531182
O         2.80487504276262    0.37466349800479    5.15236113935041
O         1.32447005177250    4.56586787908829    4.24272231232815
S         1.55961138317738    1.08253803528088    5.33207423155285
H         1.30548943215023    1.70022387330053    7.95886547785274
H         1.68910869592622    5.73546477252019    7.75220870971674
H         1.03336142319361    5.29384002329776    6.30130094612278
H         2.43827174206314    2.07859048709333    9.10183439318280

