67
CSD_code = BUVHAC | q = 0 | S = 0 | Stoichiometry = C24H26CdN8O6S2 | MND = 6
Cd       -0.00022391697717    0.00014928687134    0.00015383294141
S        -2.08240780308052   -1.77563077953319   -1.56326436036694
O        -2.44159063622717   -0.91559738069325   -2.66314503954530
O        -2.82109494691381   -1.54120943581684   -0.34412380308885
N        -0.48879685044896   -1.74550859396443   -1.28013283150065
O         1.32572500929883   -3.09139200789350   -1.48378500452109
N         1.72925259945166   -1.31041373097805    0.76318359383098
N        -1.06464312287687   -0.73210730828753    1.80372463696777
C         0.11645092293721   -2.88354491219033   -1.59745711579681
C         1.65094193576222   -2.04407309859033    2.02254101671009
C        -0.80442522695539   -1.87716579600752    2.49674133311871
C        -2.15254585879249   -3.49176052480428   -2.09266849093849
C        -2.07214174930877   -0.14771889490134    2.39597683684333
C        -0.83932522206724   -3.93052394161078   -2.09010509790338
C         0.31428425485626   -2.79246591511126    2.13031204180808
N        -2.49028069129706   -0.86568885437398    3.45578093664004
C        -1.69142928730761   -1.97314580471909    3.53379843475772
C        -0.53162161306013   -5.22074848313665   -2.48967610390918
C        -3.18741023179333   -4.30373239064679   -2.49411963269236
C        -2.88003481863618   -5.59994137710610   -2.89389987304455
C        -1.56784698415369   -6.05057184387106   -2.89229249537714
H        -2.49863915741366    0.79316977691799    2.10542720966650
H         1.74657385250824   -1.32466068780731    2.84110733544883
H         2.46829169787757   -2.77816121729508    2.10734905158855
H         1.84564492758086   -1.97667498624244   -0.00771515298654
H         2.53430878448135   -0.68917199342073    0.78155487206708
H         0.10462396275464   -3.25831784735274    1.16334561399399
H        -3.25664114798812   -0.64412747786543    4.07025069583679
H        -4.20286813781281   -3.94018701296465   -2.49466352554684
H         0.38716622871709   -3.57758875395322    2.88555432676137
H         0.49451586312625   -5.55493295657099   -2.48287555390225
H        -1.35247113666367   -7.06040515049074   -3.20945381037561
H        -1.81668731007889   -2.71518559633717    4.29537997574571
H        -3.67225279882577   -6.26162255612713   -3.21123434851672
S         2.08200020437996    1.77507077362145    1.56432639327207
O         2.44001148007545    0.91492088139694    2.66450323615010
O         2.82129854827721    1.54010755934009    0.34564164762442
N         0.48854098126015    1.74587452417306    1.28026814217296
O        -1.32530715861659    3.09280580571053    1.48273453422654
N        -1.72976109823742    1.31054890650982   -0.76320717621602
N         1.06430672144137    0.73272225400625   -1.80324677694424
C        -0.11620839886664    2.88432272695128    1.59706611210861
C        -1.65175651108157    2.04373819346596   -2.02286462054128
C         0.80372811019280    1.87730313639452   -2.49692368828650
C         2.15288085991192    3.49124234558590    2.09342051109810
C         2.07203357221733    0.14834103047934   -2.39511737267730
C         0.83995473681974    3.93088412686338    2.08989331182118
C        -0.31531339113520    2.79243973417640   -2.13109060579128
N         2.48999522760322    0.86586844621971   -3.45528960699584
C         1.69077256719571    1.97301179025384   -3.53397547595326
C         0.53294635560795    5.22150621478127    2.48871642285853
C         3.18810685474705    4.30269072515528    2.49500247742627
C         2.88142754739798    5.59931002628294    2.89396710513536
C         1.56953941959172    6.05081287697057    2.89146234463119
H         2.49881526104733   -0.79225774537844   -2.10406247914738
H        -1.74734182543409    1.32400111749352   -2.84114990845813
H        -2.46928843031977    2.77760802712029   -2.10785184702780
H        -1.84597066346482    1.97711955657252    0.00745059203238
H        -2.53481562197961    0.68929802142085   -0.78123181027927
H        -0.10585509651267    3.25900647060722   -1.16442497192291
H         3.25648375288815    0.64421329399814   -4.06956408310478
H         4.20329733885500    3.93840478823130    2.49623042707546
H        -0.38844982353749    3.57703984511821   -2.88685267145782
H        -0.49294423644330    5.55643093733947    2.48128897308063
H         1.35469378256768    7.06096284849829    3.20797756839229
H         1.81584362140122    2.71466281442371   -4.29596719492676
H         3.67393392147991    6.26064619308390    3.21130098590660

