30
CSD_code = BUVLUZ | q = 0 | S = 0 | Stoichiometry = C13H14MoO2 | MND = 10
Mo        1.04000132626593    2.48367360682555    1.52838271526196
O        -0.24090730662121    4.96348385580528    2.79733557327728
O        -1.64346647203133    2.32109879163123    0.05270305330939
C         2.32782344060093    2.00248978928510   -0.34938647066018
C         2.45943338698140    3.38104508220039   -0.02090112540586
C         3.12798095870935    3.45840886167943    1.23344680972438
C         3.35395328317418    2.15114027828923    1.68498128703305
C         2.85974880503234    1.25191155186925    0.70746338425199
C         0.57444568802884    2.20197333764034    3.78962067605450
C         0.79659628526731    0.99069469934749    3.07662425299871
C        -0.25786050443950    0.66362017179414    2.17865983628693
C        -1.67951686427818    0.79090051157697    2.68435919627915
C        -1.92958538999929    2.10484769704676    3.42108622570600
C        -0.79620702781214    2.42518743392047    4.39305886892078
C         0.22117113699812    4.02808632496577    2.31266003607799
C        -0.64434239167730    2.39602561644193    0.61838883180183
H         1.99393583910140    1.61445439205813   -1.30290937004952
H         2.32949242171934    4.20541827975298   -0.71370592543251
H         3.50836519750641    4.36449540661474    1.68662669678656
H         3.94138532691771    1.87519562246151    2.55226263912857
H         3.00771448375772    0.17896546730029    0.70873021883590
H         1.37337029544073    2.50489501155076    4.47160637570433
H         1.64051417406208    0.32752092562726    3.27291903269761
H        -0.11544330085465   -0.24682399865533    1.59053529214603
H        -2.38951454852286    0.69242968965869    1.86010792468214
H        -1.85392887824460   -0.04925082798475    3.36910564485918
H        -2.02916069151906    2.91530431858363    2.69679411243070
H        -2.87153666108519    2.04009321167671    3.97016986283108
H        -0.89631741196262    3.45401239152929    4.74610268734898
H        -0.87264460051728    1.76920249950361    5.26997165711406

