101
CSD_code = BUVPEP | q = 1 | S = 0 | Stoichiometry = C47H43As2N4O3RuS(1+) | MND = 6
Ru        5.23634824336165   22.39621740518517   17.42088902987842
S         7.43456863848654   21.87892377776920   18.15271118300387
As        5.71555649100397   24.70392726037569   16.91298627766071
As        4.41076650616155   20.14247633263773   17.62903476170912
O         4.61958019084511   23.05634761358538   20.27508671773383
O         3.34472360256403   22.78987747832905   16.51015739258237
O         3.58142544623168   21.76567655178533   10.56194009740583
H         4.14632985133389   21.49463832272476    9.83066903668705
N         1.33518468889230   22.88919984932968   13.62805342110052
H         0.37418489475743   23.12254793137555   13.40204756822798
N         5.95782739746881   21.90769032092753   15.61941018185715
N         7.23612154105348   21.52928438251997   15.49372013790770
N         9.27367208552704   21.12501768388996   16.45581785715205
H         9.80256600190014   21.07286203771385   17.31286165159405
C         4.75752622095324   22.81984563512903   19.16262250932585
C         3.05567849532743   22.66961751452103   15.26950890606200
C         1.72504191529564   22.98246074024093   14.90477364644536
C         2.15962446477613   22.50116553559815   12.63880011705849
H         1.76783330166796   22.45243473034346   11.63845684572742
C         3.46371112750533   22.17660683646503   12.90656721339457
C         3.96345175029708   22.24716228096298   14.23025322956996
C         0.75033816153824   23.41831830867470   15.94158120733067
H        -0.23355139669465   23.59492251561912   15.51465412648807
H         1.10249187467077   24.33173577904757   16.42220706854436
H         0.67451513455899   22.65899401880624   16.72064781333933
C         4.33149271760386   21.74594978268802   11.75131403058604
H         5.18912157702763   22.43118848428972   11.67494155041397
H         4.70987316609786   20.73153933504377   11.94902257298047
C         5.31699474630018   21.90532477955555   14.47437804791349
H         5.91805714281816   21.59945543401755   13.62431955395772
C         7.98884859420898   21.48416837632036   16.56108778029760
C         9.91133871317276   20.70807219352153   15.23403447513407
H        10.84658157736654   21.25213853509416   15.09932642448142
H         9.24068695785344   20.92371091400071   14.40659456655808
H        10.12613023022064   19.63704334059253   15.25450828137095
C         7.42116076152150   25.49654305412648   17.39899504369920
C         7.88465286739119   25.22078002393143   18.68259045449122
H         7.30612913268533   24.55779463783099   19.32352002605130
C         9.06793437245498   25.77761354620725   19.13235104212792
H         9.42315364333037   25.55979418835066   20.12834879721710
C         9.79581469416993   26.61382486410411   18.30065455538077
H        10.72164458544743   27.04670448513177   18.64780154327203
C         9.33618106676792   26.89838781519439   17.02545669961912
H         9.90126645331044   27.55583900033285   16.38129590765635
C         8.15005640238135   26.34449992997645   16.57250738069508
H         7.78467964434163   26.57362137685311   15.57605001414598
C         4.49165055819371   25.99648375883639   17.69256836590931
C         3.28389770840402   25.57056690781517   18.23132776837513
H         3.04339882258836   24.51130834132036   18.21318425699963
C         2.40205312867712   26.48586282773566   18.78115008063936
H         1.46638341371256   26.14959733720415   19.20407119191087
C         2.72536751772678   27.83236805861740   18.79692791079018
H         2.04236240639626   28.54591118783095   19.23208453040689
C         3.92673487912714   28.26512224193224   18.25750195924094
H         4.17796113562601   29.31508292772701   18.27149985073956
C         4.80791407930798   27.35223985669046   17.70538376766409
H         5.75352302217549   27.68305000202322   17.28569285289327
C         5.52129961369416   25.09314036348238   15.02041018614981
C         4.33614391512694   25.61758702837366   14.51507086501578
H         3.55442752415224   25.92189127584928   15.20497745315516
C         4.15867438234369   25.75499918849857   13.14912893040473
H         3.23782508859419   26.16744801763560   12.76343718030823
C         5.16260622336985   25.37024312248368   12.27613348647892
H         5.02302981527834   25.48237569419108   11.21158168153361
C         6.34597341348940   24.84441741730654   12.77007064586515
H         7.13330787513828   24.54946671737345   12.09108679764375
C         6.52080922128459   24.69565344984526   14.13445968647684
H         7.44139780550325   24.26848026101231   14.52616439200434
C         2.71550745762956   19.95179705135634   18.56002646172117
C         2.22355523404568   18.68418099379346   18.86095862616947
H         2.80096159575126   17.80854169886951   18.57768113298676
C         1.01536459730255   18.54677685510615   19.52048674202544
H         0.63911615390942   17.56269550459242   19.75665255969710
C         0.29028098108472   19.67180979512647   19.88245033579335
H        -0.64992910205547   19.56236763210304   20.40114057218466
C         0.77210192788632   20.93476952622315   19.58246788365869
H         0.20769345845329   21.81067808146825   19.86809320677996
C         1.98272300233844   21.07392545300319   18.92373719725017
H         2.37217495128027   22.05881605185674   18.68275303305964
C         5.45891799085309   18.78080627292964   18.53579936070862
C         5.57633372343768   17.46795817972036   18.09271843311950
H         5.09272891949820   17.16370493210269   17.16928912603519
C         6.30852644203329   16.55278910185542   18.83084710083155
H         6.39936342790672   15.53408058007222   18.48368887693022
C         6.92111609628167   16.94044660765221   20.01105343750775
H         7.49260366133054   16.22395149874918   20.58122634296168
C         6.80022762635065   18.24534545907137   20.46182764566736
H         7.27469774420219   18.54697964785913   21.38353008900264
C         6.07139672196092   19.16220597079955   19.72635921945271
H         5.97450163160087   20.19195090965529   20.06566613748922
C         3.98510313555287   19.34733112592352   15.90911745589376
C         2.68897264592081   19.37560278725370   15.40485822105300
H         1.88335281344026   19.74470631399874   16.03302725514758
C         2.42929005859864   18.93338906095664   14.11903983829478
H         1.41999915386636   18.95342960981152   13.73478396088376
C         3.46141380173270   18.46095395080802   13.32555681580591
H         3.25490138503347   18.11232354257439   12.32490032331035
C         4.75709979518174   18.43377311344619   13.81718442755764
H         5.56342200847794   18.06283996407938   13.20079948521991
C         5.01971552236399   18.88402711655458   15.09864033475536
H         6.03700821088537   18.88000468612859   15.48406777458379

