61
CSD_code = BUVRUG | q = 0 | S = 0 | Stoichiometry = C30H27N3Pt | MND = 4
Pt       -0.36807476223864    5.66230570882870    8.25712670241109
N         0.41656373307877    3.86034716467719    9.16864221937055
N         1.55241233182729    5.41704767395426   10.36216537424101
N         1.74173898894024    7.50716748431624    9.88137079933189
C         1.10246607332074    6.38925883232340    9.50462633460865
C         2.58653399126465    7.25246073182823   10.93389679121284
C         2.47720969199084    5.93988622896134   11.23846011731975
C         1.58326611488116    8.79350643985291    9.26230787777128
C         1.12669195491504    4.10307378367565   10.21489309771799
C         1.55801846126198    3.11501333679332   11.21859773073926
C         1.35723283737922    3.35259063008005   12.57705361956845
C         1.74545506296441    2.40978352581579   13.51077112943194
C         2.33983470758914    1.22800014161279   13.10039436402576
C         2.53919681626405    0.98594513970250   11.75053634180584
C         2.14782979750082    1.92023489332657   10.81112784229868
C        -0.16696889598249    2.62900371525562    8.88861132264266
C        -0.10233704563539    2.15945722570255    7.57622308464275
C        -0.75785228506836    1.00198273541300    7.22180775860479
C        -1.50930483223141    0.29111593700165    8.15268170041643
C        -1.56612567322772    0.76229963119325    9.45709438987804
C        -0.89922436632683    1.91237871093982    9.83165542369251
C        -2.27132328717278   -0.92853066213369    7.73638638076867
C        -1.13744378852625    7.36028127892059    7.55179232015548
C        -2.12030668121067    8.06566593296990    8.24860933376376
C        -2.59308372947907    9.28347488133043    7.78963561542021
C        -2.09251951920731    9.82973091026263    6.62001568031559
C        -1.11951448979236    9.14603131291277    5.91098023859745
C        -0.64925040428541    7.92792158652202    6.37218370630062
C        -1.81769982503987    4.70980175534142    7.26111313531129
C        -2.81880388912815    4.08128914824691    8.00851076577113
C        -3.72057703435155    3.20492668509666    7.43227336387286
C        -3.64825243760682    2.92955580554978    6.07778965852132
C        -2.68276688945171    3.55387706965456    5.30840694894300
C        -1.78739126660574    4.43433212004724    5.89245063935680
H         3.19381437140407    8.01490305577641   11.37779518569261
H         2.97773849648083    5.35269952089861   11.98016894252044
H         2.52758519649557    9.12339571952450    8.82537161138582
H         1.25721019686506    9.53022917089580    9.99803092978936
H         0.82976351380303    8.70904448409316    8.47966047922801
H         0.87196915457385    4.26398156036709   12.89777155318025
H         1.58043425304779    2.59762028670563   14.56133748851197
H         2.64365870466437    0.49441667821856   13.83173984805464
H         3.00026520906694    0.06457754632062   11.42845905552251
H         2.30323369592709    1.73466484117205    9.75857659592599
H         0.45940865883172    2.72440807055254    6.84664013905522
H        -0.70798836645611    0.65323371234361    6.20086144671253
H        -2.15162378101217    0.22926593880608   10.19274263017360
H        -0.98504201365962    2.28408986185118   10.84303261238361
H        -2.56173837723300   -1.52339099706316    8.59904502036181
H        -1.67883514299791   -1.54509075660331    7.06325457079488
H        -3.17579447008105   -0.63014110988835    7.20591434899759
H        -2.52963589649191    7.65121007895761    9.16523533002220
H        -3.35778326532693    9.81029755130140    8.34485286219953
H        -2.46246664837641   10.77955176465767    6.26002775390220
H        -0.72815852364513    9.56514850921660    4.99356403501087
H         0.11309788459722    7.40433566298699    5.80200763134820
H        -2.89389268117571    4.27636545421212    9.07685568290380
H        -4.47832373568403    2.72748157124050    8.04086983902479
H        -4.34555049183430    2.23792818453854    5.62364165561851
H        -2.62862470199153    3.35205871599769    4.24605309404523
H        -1.04605070047581    4.91839742705745    5.26439784877688

