40
CSD_code = BUVRAL | q = 0 | S = 0 | Stoichiometry = C19H16FeO4 | MND = 7
Fe        1.43965218716862    0.42942191383409    2.44813362468447
O         1.46927651406235    2.87746598379488    0.88655567040089
O         0.19643265522555   -1.40003306401679    0.51004192885822
O         4.22626136074192    0.19450794540502    1.66422480505951
C         2.73205843927803    1.04368723171772    5.41417916893500
C         2.09174685870172    1.22495742659784    6.82053461164008
C         3.12071555149218    1.70154270620922    7.85086954861901
C         2.42020572183346    2.30839535021839    9.02770748822297
C         1.45093107027085    3.27094964035483    8.74862329722048
C         1.21812082096512    3.58820569500464    7.30339292592903
C         1.01252269628197    2.29202670346435    6.51273323377063
C         1.24383631840103    2.50993672747281    4.99008489497009
C         0.70923953539983    1.25530768727833    4.32896439461355
C         1.69784803869953    0.28169230146907    4.61013670742282
O         2.64969573671972    2.35156402796252    4.86745778998431
C         2.68287263590651    1.95551203955007   10.34023256695534
C         1.98997066804228    2.56327212361039   11.37444667263665
C         1.02835647123699    3.51911957060557   11.09744147082149
C         0.75610059540733    3.86995771382591    9.78525908806303
C        -0.41727485014530    0.95590092796253    3.53167135192316
C         1.60538875191310   -1.03340246632614    4.10505238360283
C         1.44995295630263    1.92468839464178    1.52242361222976
C         0.65239565050036   -0.70746314619704    1.29720411961271
C         3.13415971586880    0.28480695628075    1.99831258378953
H         3.75457409758378    0.67594144046329    5.40319174694946
H         1.64017029156673    0.29229857981031    7.16656336219607
H         3.75617983683155    2.45792082293157    7.37979022870888
H         3.75395676666525    0.86766749519524    8.15795508194923
H         0.35312186144120    4.24157716045528    7.17894330521988
H         2.09602128046022    4.10261879689919    6.90032761101536
H         0.00798769762348    1.90776480560620    6.70425360724296
H         0.91957951280757    3.46861054082548    4.59419294470727
H         3.43242604637320    1.20732096157308   10.55582039405396
H         2.19965157251194    2.28792474817023   12.39742596613172
H         0.48681365516153    3.99085143693264   11.90396557354983
H         0.00341962366771    4.61453136600510    9.56800345169284
H        -0.97600171928530    0.05340911533818    3.75791565131050
H        -1.05876096010608    1.78379407206020    3.25232557489121
H         0.66228813536586   -1.55809201723211    4.21939925420365
H         2.46280620105673   -1.68035971575438    4.25024230621150

