47
CSD_code = BUVRIU | q = 0 | S = 0 | Stoichiometry = C20H23N3Pt | MND = 4
Pt        7.88471812668657    2.00096521667232    9.37384238334855
N         7.93654581589299    3.36948964202023   11.04230166654224
N         5.72601413827188    2.85400684608418   11.02353287135208
N         4.62641096973328    1.87762193174325    9.45221406264427
C         5.86867409560027    2.28141147146778    9.77931083708084
C         3.72818502469267    2.19841721819302   10.44003120390903
C         4.40835377264050    2.82282983917543   11.42529525436525
C         4.25410552565850    1.23128382399061    8.22585342150419
C         6.80444480993985    3.44680468975610   11.65326238849690
C         6.56196753888827    4.17645035187356   12.91417212015757
C         6.03978692736121    3.52089527468441   14.02655486372375
C         5.84411331437161    4.21030733813789   15.20919330737104
C         6.16334141458001    5.55546560058220   15.29161853132512
C         6.68568939306800    6.21100268998421   14.18857363161112
C         6.88881150226095    5.52703043637429   13.00514564244244
C         9.09514154171129    3.95309638862303   11.54975046531832
C         9.53479350405187    3.74869143747365   12.85515536477651
C        10.71528048477394    4.32385857113754   13.28418081480026
C        11.47617413730195    5.11973603024548   12.43812418516260
C        11.03374205364844    5.31146261109801   11.13281864841105
C         9.86646890542946    4.73018309347509   10.68641710374744
C        12.74175087692306    5.76476577082100   12.91525414246911
C         7.70904107286552    0.72504185107617    7.79439503653895
C         9.89087891758803    1.66737586859922    9.33621836612125
H         2.68528676351442    1.96699078904335   10.36065976339783
H         4.06823065890572    3.23827834796514   12.35084571471031
H         3.37255254632816    1.71423816513297    7.80127708487918
H         4.02975908512045    0.17673472332715    8.40091336556098
H         5.08457471411760    1.30549465415704    7.52923553045130
H         5.81310707805901    2.46511997107135   13.97091903602269
H         5.44498443045101    3.69411492215242   16.06981003810911
H         6.00914110985378    6.09101876654706   16.21626188584595
H         6.93754229622648    7.25897236651232   14.25049129391876
H         7.29576163212500    6.03592966644770   12.14372289861294
H         8.96952535613648    3.11109803293270   13.51960942605466
H        11.05132511600969    4.14636474442691   14.29601095362922
H        11.62098755469623    5.91573795750366   10.45622671265762
H         9.53209260215550    4.86030554865233    9.66661774594122
H        13.49533462017618    5.76208374255785   12.13061850650447
H        12.55144152432028    6.80238620640927   13.19311100397725
H        13.13759601146331    5.24803736659383   13.78617420781720
H         7.02630591324991   -0.09827648496033    8.03551351035529
H         7.27639077119430    1.28397732481352    6.95195769817455
H         8.63573918048447    0.27863599636943    7.43415657212336
H        10.24044399515456    0.67024747440091    9.05606597185249
H        10.33840092359413    1.89519338355112   10.31123837965982
H        10.34104225272186    2.36342234110204    8.61274638653143

