76
CSD_code = BUVSAN | q = 0 | S = 0 | Stoichiometry = C35H37N3Pt | MND = 4
Pt        5.18156544238868    7.30849075242693   20.51703263503788
N         3.94061766078022    8.33729244074805   21.95797190337991
N         3.15986557467287    9.23541560705282   20.03559022638603
N         3.46883726495858    8.45720882725194   18.04611484021302
C         3.75408623025207    8.20407025585805   19.33628016523415
C         2.69109186892535    9.58361745485749   17.93099390603627
C         2.48151893135635   10.07032711946027   19.17306726520578
C         3.85033871426062    7.63257414939247   16.93372411898991
C         3.20185023469945    9.24113894504940   21.42027698976601
C         2.40197718835822   10.24195465887196   22.15020820828708
C         1.49663410346951    9.85140655779627   23.13281197786902
C         0.78024916712137   10.80461078985810   23.83323282697601
C         0.96366142871399   12.15139911743187   23.56805161810652
C         1.87585860353820   12.54663600024807   22.60306357449125
C         2.59400748194159   11.59963629661813   21.89745450256200
C         3.97697670237512    8.03536673275161   23.32500843144406
C         3.27804569888229    6.88511485413204   23.73643687847101
C         3.40658298199857    6.47286238166942   25.05160868830357
C         4.18651140914996    7.18380633807093   25.94639845069990
C         4.83761158578460    8.32861844750205   25.53645292750538
C         4.74774917423600    8.77521161890601   24.22535737388174
C         2.41413675941093    6.12988190887127   22.74499936177776
C         3.26071427385362    5.14658558168342   21.92899818682841
C         1.24840336069533    5.39365199444267   23.40749676073813
C         5.47080087459007   10.03300092250871   23.80544771761426
C         4.89954054073388   11.24371138690037   24.55011963568843
C         6.97533844793430    9.91808627779711   24.05261797193324
C         6.79804285783033    6.97914664161833   21.69445330067121
C         6.70492138547234    6.22671386234476   22.86853960387755
C         7.77971809915421    6.07768404977852   23.72976684654287
C         8.99289349920236    6.67680692780298   23.44435639685596
C         9.11677234320227    7.42715744178316   22.28815381434162
C         8.03706033800945    7.57357959278951   21.43270472541077
C         6.26005484452402    6.40644216406836   19.08866464638264
C         6.23892142623682    5.01413454372203   18.97733922131609
C         6.91473886218825    4.36200050695135   17.95971717657576
C         7.63765508632426    5.08523965604193   17.02670698883909
C         7.67975398071121    6.46509075654743   17.12246730139225
C         6.99814752381449    7.11438698582349   18.13813149603753
H         2.34416001534252    9.94238231393509   16.98325270059519
H         1.91776016287793   10.91877365468626   19.49996383771368
H         2.96437628222812    7.29747257440593   16.39097471018181
H         4.49494693321943    8.18887755866464   16.25121675873553
H         4.39955125785761    6.77144545833235   17.31084662120918
H         1.34654339277967    8.80387868776322   23.34185179389906
H         0.07727453855903   10.49298539680424   24.59087038672393
H         0.40371103758949   12.89286895848767   24.11753542528567
H         2.03430434547139   13.59611827684858   22.40449411018429
H         3.33037555636352   11.91359028425293   21.17132515935646
H         2.89667528637739    5.58473946497791   25.38919737956331
H         4.27995212456486    6.84296624647580   26.96683017429543
H         5.43161932693283    8.88374036669068   26.24576510342215
H         1.98215651906614    6.85688781014477   22.04433669064626
H         2.63231074860715    4.61356473694307   21.21801769317679
H         3.73413852379208    4.42017523463753   22.58614871429073
H         4.05090116773072    5.68545983625956   21.36339691430186
H         0.55538252881411    5.04584772345678   22.64374640950403
H         1.59535736311650    4.52457917047468   23.96061441444024
H         0.70796917556842    6.04851390566597   24.08884463039581
H         5.32532167591329   10.18579375194173   22.73059668742894
H         3.81979233457633   11.30399276968090   24.42987594399981
H         5.11926723752435   11.17450816108034   25.61264582636214
H         5.34236531467311   12.16186557310757   24.16958532201216
H         7.47942587367426   10.81345586319616   23.69438728666213
H         7.19070733894052    9.80548414243559   25.11193540613514
H         7.37913877614205    9.05873660467161   23.52579932967223
H         5.77670417231645    5.73762391266203   23.13712092794685
H         7.66554835364470    5.48894273977209   24.63078414141816
H         9.83356886279397    6.55989304556950   24.11449138386925
H        10.06027432656546    7.90111515542661   22.05069720459060
H         8.17344892024413    8.16285372141704   20.53322903735274
H         5.69341357186737    4.42191597024864   19.70611305634602
H         6.88344286945238    3.28256290808741   17.89714237453186
H         8.16977805343591    4.57667954182013   16.23510675906996
H         8.24833100017978    7.03799190376083   16.40176771244729
H         7.04565307945204    8.19715602768640   18.18947331058622

