65
CSD_code = BUWDUS | q = 1 | S = 0 | Stoichiometry = C32H30OPPd(1+) | MND = 8
Pd        8.37582190095077   12.14704752853287    8.38100743641894
P         6.51600478847794   13.30567472039840    9.04262792904883
O         8.87084276969982    8.88952830133994    3.09868935091003
C         9.65485166900603   13.66481814793633    7.44343923907403
C         8.65938756454000   13.30655497021223    6.55890036096298
C         8.73611978345057   12.17870596105656    5.62101677696398
C         7.54049754834844   11.57855648254125    5.20931312741653
C         7.53844246766497   10.47821223000817    4.37464555020210
C         8.74670856742890    9.95703845746352    3.90795996381359
C         9.94500225880439   10.57666935636836    4.28834058989944
C         9.94230678751410   11.66334437138140    5.12997744062882
C         7.71163573316596    8.23737451041411    2.62721069459859
C         8.08780317037501   10.51686606933122    9.75549552923935
C         7.84980785933836    9.76221692635109    8.52549820398278
C         9.01624352762083    9.76371697412437    7.80686622469122
C        10.00660414444834   10.50866176233652    8.56246383239872
C         9.47524610077869   10.80878825673987    9.82429468491327
C         5.16316143706444   12.16140981692296    9.43781201355629
C         4.48044269678852   12.15614512367103   10.64757470433973
C         3.46509093568854   11.23629330342765   10.85312322151252
C         3.13206753467585   10.32677037618539    9.86334869849375
C         3.82255513929117   10.32152991226968    8.65990190563896
C         4.84067140796237   11.23085624148506    8.44923397076736
C         6.92112589359652   14.24669532305812   10.53739709404751
C         8.20028440878766   14.13712056898602   11.07594176509472
C         8.53301070574790   14.84939828387605   12.21456050204424
C         7.59254931254936   15.67303551587898   12.81305671930208
C         6.32437575314933   15.80004183274334   12.26591024000554
C         5.98495530732391   15.09521018859031   11.12578463413824
C         5.76752786646994   14.56861075661145    7.97037255398905
C         4.57970592980109   14.36105608317611    7.27722342097022
C         4.07091435993520   15.36568839807112    6.47159039886051
C         4.74220248476602   16.57099355374609    6.34814562908183
C         5.92980518846100   16.77906027454897    7.03416111772439
C         6.44443111001904   15.78211172449366    7.83979836233974
H         9.61735083769561   14.63460263211593    7.93321113131088
H        10.63588413145677   13.19437717758986    7.40001441197758
H         7.82598973004179   13.99182320168015    6.39534540480738
H         6.59735766616929   11.99732625624755    5.54687699920149
H         6.59826510119034   10.03740281054592    4.08424641856009
H        10.86718669057901   10.17755467241301    3.89763051293062
H        10.87839631863249   12.13559862656999    5.38857217709569
H         7.08645028428029    8.91288933461930    2.03630276397613
H         8.06910282476868    7.42947417326467    1.99189351577043
H         7.12543135738608    7.81722696139226    3.45008654412414
H         7.40570169282857   10.52467529571263   10.59861000055409
H         6.93605244087845    9.23868027648660    8.29439800405757
H         9.20557446383901    9.27399195012846    6.86571599384377
H        11.05111034516496   10.56809404251902    8.28779319082643
H        10.01153477718121   11.20325406679929   10.67718165094694
H         4.74389145006831   12.85657697871923   11.42655641957001
H         2.93447776611086   11.22994303892695   11.79278439668077
H         2.34019453826199    9.61364506312796   10.03170748767631
H         3.56852417094647    9.60457214926772    7.89366937510824
H         5.41051082974055   11.22620191472833    7.52318175952415
H         8.93934180594774   13.49820349391372   10.58246992166934
H         9.52410963219997   14.76734144186346   12.63404760805738
H         7.85096632256438   16.22591246085811   13.70276180602872
H         5.59994953626753   16.45338115394247   12.72748372140753
H         5.00455219288674   15.20569322965322   10.68265627939575
H         4.04747872561174   13.42602828918032    7.37643319267813
H         3.14490177113714   15.20582238583087    5.94092097246902
H         4.33977434213879   17.35048885630243    5.72027026888051
H         6.45140470100204   17.71920396870016    6.94227165434272
H         7.36682943955150   15.93891179258564    8.38462252963872

