61
CSD_code = BUWFAA | q = 1 | S = 0 | Stoichiometry = C31H28PPd(1+) | MND = 8
Pd        7.20638087625131    3.73483121964610    5.75458521240964
P         8.00886028739844    1.88110706474541    4.67127786808587
C         8.80026830294500    5.24430352798077    5.59963861564814
C         9.14211281509365    4.31399611086586    6.55433923377086
C         8.73147977786852    4.37952591849359    7.96988152006356
C         8.53972281639576    3.16752001842496    8.64729161163561
C         8.10916090919398    3.16119050777682    9.96062574577238
C         7.88463826068765    4.35973229637778   10.62161035266666
C         8.09929700088202    5.56293262664448    9.96866803402762
C         8.51719389084359    5.57895025361779    8.64942484783589
C         5.14134477341966    3.17347909286380    5.57859553327304
C         5.23148276086997    3.06206827294318    7.03452715740412
C         5.49163040883204    4.31251559249220    7.52850228790808
C         5.55909822515419    5.23301479126081    6.40695049910395
C         5.16911301695184    4.55388859501631    5.24582836968206
C         6.97497854258351    0.42421379995767    4.99592526615686
C         6.40717598633959   -0.35419447690627    3.99482257115722
C         5.63166131616847   -1.44906558432154    4.33966913483091
C         5.41988878957548   -1.76707491492718    5.67084922210008
C         5.97379397870387   -0.98213114953318    6.67176894761290
C         6.74322791561830    0.11499163660487    6.33674519435828
C         7.97170777833303    2.21187856912643    2.88955586130490
C         7.44047809967045    3.41614963973549    2.43559812927902
C         7.40727220051743    3.68839370833647    1.07931515762198
C         7.90653552989230    2.76276837045440    0.17669851986680
C         8.45289436568392    1.57038482143849    0.62775719099415
C         8.49332608368414    1.29195389722001    1.98147449317881
C         9.71643618920289    1.31734816638270    4.93751735899959
C        10.02849061763281    0.19643475797724    5.69948245439115
C        11.35281131181714   -0.16837420469035    5.87316609101708
C        12.36596367028228    0.58067668487345    5.29799058663164
C        12.05817456627282    1.70096253442460    4.54001863391673
C        10.73977376867032    2.07247734460449    4.36233266170171
H         4.76077501079997    2.38628022815176    4.93724280176257
H         5.04346147319168    2.16102062778195    7.59555654053575
H         9.91119805431552    3.57420578359993    6.32766981155820
H         8.75359916692208    2.23488619826278    8.13069542288998
H         7.95676379645740    2.22446516160678   10.47493909533417
H         7.55420240170309    4.35507529983005   11.64865036501585
H         7.94224264354065    6.49465367673637   10.49020649464753
H         8.70190195014893    6.52135283052236    8.15458211865083
H         9.31207571338826    5.24885889079507    4.64035584085582
H         8.30515542998662    6.17342197071040    5.87779988072824
H         5.58923451277328    4.59839858345909    8.56302470773078
H         5.63050837642634    6.30695007749707    6.51501665742563
H         4.95244677298112    4.98979386165831    4.27967063894251
H         6.56065956147203   -0.10425258433876    2.95518989634212
H         5.18957711449669   -2.05404074551876    3.56305658032423
H         4.81522670934361   -2.62186004212628    5.93087651230235
H         5.79956594903139   -1.22513675208676    7.70908999529850
H         7.16413829085050    0.75453467207569    7.10763787186426
H         7.06472687115200    4.14727922542313    3.15847176950564
H         6.99667326821330    4.62144348720472    0.72456394108164
H         7.87866259517929    2.97436450640367   -0.88084599281376
H         8.85185138389346    0.85794068669551   -0.07782587698640
H         8.93529007103543    0.37240529781055    2.34048202810848
H         9.24198053297167   -0.39735732761059    6.14245434915490
H        11.59232912527604   -1.04271257108640    6.45857393340905
H        13.39588278874647    0.29146427153609    5.43699305597849
H        12.84634130062616    2.28292034245092    4.08768573313199
H        10.49075430180326    2.94169485277398    3.76645146262065

