61
CSD_code = BUWFEE | q = 1 | S = 0 | Stoichiometry = C31H27ClPPd(1+) | MND = 8
Pd        8.01339346166531   12.23546875903783    8.42667341929966
Cl        8.25398017183373    8.73850525429438    2.92169231462959
P         6.16824602713493   13.43635457834716    9.06833264302608
C         9.38434719867663   13.70263110065792    7.53350973752825
C         8.37658495496430   13.41741518595926    6.63924306034716
C         8.39902988092228   12.29476577078342    5.68470107785253
C         7.17129151999889   11.73011355237118    5.31016346459590
C         7.12310026800666   10.63769595327464    4.46791851202929
C         8.30683910418613   10.10496054047043    3.96886435534412
C         9.52973565830748   10.67605435952352    4.29940933509631
C         9.57527887174939   11.76123819756102    5.15373019662042
C         7.64586064159852   10.60405910586823    9.77311400389999
C         7.40862909662713    9.86737953152936    8.53075917597504
C         8.58848916163888    9.83771658049432    7.83584377309093
C         9.58787999231928   10.54158553952413    8.62001560541322
C         9.04109492478679   10.84792030428735    9.87356925482587
C         4.78726336690866   12.33344999597464    9.48245618326871
C         4.11777011628698   12.36079210648688   10.69957451320640
C         3.07519882646345   11.47626004605118   10.92379581575765
C         2.70221602694790   10.56956381867544    9.94557613139809
C         3.37950671135404   10.53135096931489    8.73505835792780
C         4.42420716854666   11.40526490659527    8.50548844072824
C         6.59795278431148   14.38697534311017   10.54998661729254
C         7.86487381183299   14.23615886625208   11.10754017106918
C         8.21095589421714   14.95572720519997   12.23776956296809
C         7.29709942351938   15.82804524150885   12.80805161566749
C         6.04140278424454   15.99436218199000   12.24259267041241
C         5.68810854307070   15.28124963985747   11.11198691030583
C         5.45366328125190   14.69993112469546    7.97451208238103
C         4.25974226007099   14.51200304231458    7.28618890726379
C         3.77645303658738   15.51581502845551    6.46401417189651
C         4.47880772145156   16.70088591941468    6.31988705290434
C         5.67153118204675   16.89008851545342    7.00268540111450
C         6.16142155481262   15.89360343132331    7.82417553481421
H         9.39651860566093   14.66134989240955    8.04613202060385
H        10.33652537450443   13.17644186821727    7.48947341739886
H         7.58627457174928   14.15108204572170    6.47471459647636
H         6.25124379894386   12.17268027629260    5.68056993608789
H         6.17887669126741   10.19837525845339    4.18809211633404
H        10.43929373644662   10.26974165278117    3.88654150097938
H        10.52893503799839   12.20994341264093    5.38946063255573
H         6.94813545608869   10.62479159326395   10.60314383168137
H         6.48421909906251    9.37539168720179    8.27483132471600
H         8.77898183600761    9.34825493841343    6.89477046788774
H        10.63962788292667   10.56809937642181    8.36851011353453
H         9.57244075220781   11.21600530462440   10.74133656814220
H         4.41206499751826   13.05924612151586   11.46944420819640
H         2.55498563939931   11.49534316872328   11.86909316386488
H         1.88877991635961    9.88462930206146   10.12765715758171
H         3.09416167333876    9.81732806986130    7.97708406649550
H         4.98178278179828   11.37336083337106    7.57308334399731
H         8.58442437260647   13.55842596186476   10.63692037749622
H         9.19226020488047   14.84167225198613   12.67254754454257
H         7.56642307688013   16.38713791832121   13.69059503894895
H         5.33754193045559   16.68370430907453   12.68294539115761
H         4.71709087354528   15.41874768461576   10.65582769424655
H         3.70247858918822   13.59378858984125    7.40255053999563
H         2.84581520065828   15.37115662933364    5.93722676008018
H         4.09614610754190   17.47980544025758    5.67926504306939
H         6.21668367494711   17.81512035481000    6.89542828762038
H         7.08763268790535   16.03588436094712    8.36687478715740

