44
CSD_code = BUWGOQ | q = 1 | S = 0 | Stoichiometry = C15H24ClCuN3(1+) | MND = 5
Cu       11.67549322044173    3.64627857596810    3.45111206815629
Cl       13.21264322642744    5.53362910790297    2.91092708699275
N        12.46465981062660    3.89786447198937    5.46871375964647
C        12.71168561501012    5.31292660897792    5.83489776011270
H        12.62568904387730    5.47600103355255    6.91298977632793
H        13.72568296133492    5.57593534750724    5.52599179487193
N        12.04280884258510    1.70621003853970    3.05630353221864
C        13.63324183250110    3.03248792658948    5.65594480631214
H        13.96041749191779    3.04522387490894    6.70419218991070
H        14.44591564342242    3.43370704687382    5.04450313096778
N        10.60936813230811    4.32157500801963    1.67235433688630
C        13.35330453679940    1.58502431098107    5.24932763438225
H        12.44755130181504    1.23679759532721    5.74595185614987
H        14.17683233858854    0.98091104268117    5.63352223282178
C        13.29098371811188    1.32013476795247    3.74061359395191
H        14.11167376178484    1.86524453799349    3.26848876593196
H        13.46507368898641    0.24670985773614    3.57670475107113
C        10.94574157908261    0.84542122518938    3.49435197029970
H        11.15271540276433   -0.20635601139038    3.26560255373689
H        10.02025826094731    1.13259989766960    3.00361523928110
H        10.79194146957850    0.94444963499168    4.56497033852199
C        12.24826827835883    1.56203576921562    1.60293873255877
H        12.39528817987215    0.49692213788037    1.37205341989676
H        13.16988484140043    2.08823478583680    1.34346042982707
C        11.12954322482189    2.09245919767777    0.69882376942547
H        10.15236885583789    1.75904252775906    1.04823855374256
H        11.28623320678547    1.63989453882468   -0.28163629599333
C        11.10820654827261    3.60772011550802    0.49288434707854
H        12.12218133188976    3.96401711064129    0.29234493801058
H        10.49021126353984    3.83343469856754   -0.38643100444651
C        10.60036452507854    5.79528962248191    1.51189338168758
H        11.49196761835536    6.08563111840626    0.95202973614508
H         9.71971174593442    6.14002268031422    0.96249775119056
C        10.63633077162088    6.36451257162382    2.90122125555122
C        11.74395597964551    6.05144618382505    3.68595502910873
C        11.69889455468629    6.12216882140600    5.07652357813545
C        10.59928032088582    6.73105372374612    5.66356843704050
H        10.54970365735158    6.81343359262675    6.73828980310726
C         9.56433983071272    7.21736334924383    4.88065559058605
H         8.72992952984106    7.71807863292641    5.34414709427218
C         9.55069242146172    6.97001962142794    3.51691124776215
H         8.68871688196617    7.23952769910665    2.92652381058301
H         9.65088139089834    4.02189248759155    1.84992543131142
H        11.70816316187170    3.55112311340133    6.05810178486628

