44
CSD_code = BUWGUW | q = 1 | S = 0 | Stoichiometry = C15H24BrCuN3(1+) | MND = 5
Br        7.89403365537284   10.24253265915864   10.24496053584904
Cu        6.08646544502299   11.57386838185213    9.59930999605828
C         5.54005600598204    9.80643453381108    9.15264056365079
C         5.67748668581401    9.44390529123164    7.82991318483569
N         6.55510046118669   11.65334703769845    7.43720669585443
H         5.78544901969955   12.11234936786498    6.95205381572315
C         4.91841533473401    8.36712239400659    7.38366212340244
H         5.00246479747635    8.05350195125987    6.35478808909230
N         6.54002048592198   13.45238674860432   10.01941781317862
C         4.07315267443146    7.70411067413933    8.25731825041075
H         3.50172926415725    6.85956970579509    7.90575534755550
N         4.81555096723272   11.19784739865874   11.37260444253027
H         3.90383035258767   11.62647898084604   11.21968740657090
C         3.94328567433329    8.11536796759974    9.57309113486436
H         3.26979273000175    7.60606202190210   10.24471987204361
C         4.69109242843306    9.18888333791029   10.04573477305258
C         6.62546447070756   10.24589918415747    6.99193657925446
H         7.64247763279766    9.88559134209923    7.18194502259200
H         6.42174711696165   10.13705259188183    5.92246970171321
C         7.79343674513016   12.39519895226946    7.19302100339724
H         8.00628558725129   12.45637525141825    6.11836257101381
H         8.60813198339284   11.84221330587657    7.66873327623891
C         7.73892581547156   13.80569660455778    7.77259202944173
H         8.63444664498936   14.32818352098163    7.43220873396436
H         6.88494131499147   14.34671159757787    7.36329834224197
C         7.76463709920672   13.87278288965301    9.30146335754389
H         8.58363013382286   13.24270541164953    9.65856900880194
H         7.99035014414344   14.90950104227994    9.58407358462699
C         5.40403821366570   14.28640621732089    9.62119440891019
H         5.60064060447357   15.34216539996684    9.83240259235366
H         4.50617145474636   13.98551109023555   10.15435498127013
H         5.20443677372131   14.17465425297318    8.55879730343510
C         6.81823644358234   13.61529067175234   11.46442111657782
H         7.09293796050249   14.66271302412374   11.64615515127191
H         7.68754707856883   12.99559345462871   11.70015512262754
C         5.69433533164711   13.25693689129744   12.43960250108095
H         6.01701324265838   13.61796834335168   13.41756088464688
H         4.77195791720823   13.78643480585962   12.19802454558127
C         5.42051845363355   11.76242162473032   12.58047157381958
H         6.36495104162135   11.23846497332453   12.75167370712230
H         4.77671474286734   11.59645715671168   13.45335714086453
C         4.64589580119914    9.73125376090363   11.44145563804502
H         5.49640328987655    9.32174728384633   11.99740818989978
H         3.72910097877367    9.44280090223211   11.96432788698991

