41
CSD_code = BUWHEH | q = 1 | S = 0 | Stoichiometry = C14H22ClCuN3(1+) | MND = 5
Cu       -0.10583931528215    3.91696546098853    6.38599920411342
Cl        1.45030111749320    2.06322485841984    6.83312576780689
C        -0.21781204426502    1.43907889200742    4.79509605478032
C        -0.06940859281466    1.53112565210147    6.17777301007787
N         0.39874511002687    5.81119519421373    6.76335584561123
H        -0.40545566084782    6.37431630637833    6.49245482067604
N        -1.10072024990051    3.29949377784829    8.22453803561840
H        -2.07102782805468    3.56401106381060    8.05495097889918
C        -1.11539538064503    1.22837842011858    7.04759798091610
C        -2.23870649243177    0.60485583817850    6.52389153397682
H        -3.05449740136393    0.34365568310089    7.17997771932561
C        -2.32320733787631    0.33253774745860    5.16760869167575
H        -3.18469801959611   -0.18394252364266    4.77596543235965
C        -1.35347354714711    0.81307134043667    4.30184236067624
H        -1.48311569449149    0.71342517254986    3.23532996093788
C         0.72243851666404    2.24842241706192    3.94704156194806
H         0.56297648562856    2.05708189942317    2.88186293348382
H         1.76161549262594    2.01527239069379    4.18870500983082
C         1.56847192262773    4.57222644203872    3.94871617306062
H         1.72151673858310    4.59454993444207    2.86193650536148
H         2.48067229164606    4.18365596912512    4.40837570648401
C         1.32067298094712    6.00033872384473    4.44320813387391
H         0.30881510863921    6.31173297580394    4.17382688163782
H         2.01408290150211    6.65183103223204    3.91046836941091
C         1.54395857758569    6.22066601238322    5.94267719919166
H         2.41201830072555    5.64450977481355    6.27236058750868
H         1.76506965923609    7.28329141472456    6.11345343784147
C        -0.53902643520173    5.57073852500574    9.07236307994440
H        -0.44657380670325    6.08630283139196   10.02867470527820
H        -1.47672269367463    5.89607728128217    8.61613446322964
C        -0.60532597459843    4.06987212889813    9.36997872249294
H         0.39615434651127    3.70431680271834    9.61029609074498
H        -1.24265989475424    3.91020846848465   10.24940366010297
C        -1.06238550314736    1.83119759444774    8.42304855375379
H        -0.12534404776009    1.57693980485642    8.92293700825875
H        -1.89249130302581    1.48139930196361    9.04369774218990
N         0.46955821585293    3.66594407055236    4.29825461036145
H        -0.36609570717529    3.96560647591239    3.79618605778799
C         0.63829349538759    6.01168979995290    8.19692883575440
H         0.84774166248007    7.07175947069105    8.39598516360035
H         1.53018000659436    5.44127557328732    8.46777140941607

