99
CSD_code = BUWKAG | q = 0 | S = 0 | Stoichiometry = C37H57N2P2V | MND = 6
V        11.05688405321267    2.49068314831157    3.06061519503665
P        12.05503273028078    3.20893540887634    0.95792530306824
P         9.91659179110323    1.09422405400133    4.62970861663227
N        10.40138733024928    1.10858842068060    1.92251830550797
N        12.52033227611510    2.64483716802359    4.16339870714237
C        11.12956996469294    3.72502943281343   -0.62022873987623
H        10.70076279602134    4.71223958516394   -0.40509184984997
C         9.98225731677088    2.75547561512423   -0.90050151836041
H         9.33637780943592    3.15864256609663   -1.68073630364357
H         9.37257693754454    2.58004525266455   -0.01581417771032
H        10.37233452444544    1.79791573286699   -1.24458936538026
C        11.99389128043250    3.82291557616937   -1.87587418870444
H        11.34995123560626    4.00167693937956   -2.73713797046176
H        12.52581132147451    2.88879078868073   -2.04925494411724
H        12.70889141795521    4.63981003215513   -1.82637559634956
C        13.72394832960122    4.01354860551221    0.67210543555541
H        14.06611324608977    3.76710955001127   -0.33833698717359
C        13.60600001117071    5.52882732073480    0.80766911075311
H        14.56499969310222    5.99988475495864    0.59139556075118
H        13.31771352424320    5.79270982881334    1.82366507413270
H        12.86573218178724    5.93864970253403    0.12362511999929
C        14.74150544712937    3.48696147688179    1.67606596400855
H        15.71684965208308    3.93904729192683    1.49490028727296
H        14.84644998255748    2.40697880754060    1.59632775632170
H        14.43532098362468    3.73897385760969    2.69095966711970
C        12.33491148995742    1.46242606890683    0.53985683730951
C        13.35259378076772    0.96142042060357   -0.25408966576879
H        14.11558664796077    1.62433032120478   -0.63968029433538
C        13.42532682716714   -0.38874405169323   -0.57772971056248
C        14.55220799833555   -0.91771408212211   -1.41462674613217
H        14.24192903548803   -1.80316624172675   -1.96529502767573
H        15.39753365448765   -1.19445532948069   -0.78177419879397
H        14.89670393427307   -0.16681200704028   -2.12344453542046
C        12.43062074208533   -1.22976019976824   -0.09369130573856
H        12.45759319885603   -2.28219754293604   -0.34154488798896
C        11.41132856114978   -0.75491171255625    0.70418992648165
H        10.66251655100761   -1.44331602151718    1.07165240133849
C        11.33757942671476    0.60222508953770    1.06592056975328
C         9.23285627084992    0.42175874987945    2.13701867291945
C         8.44937982425305   -0.13681849059955    1.11849846443324
H         8.76712652676587   -0.03962616439079    0.08870043523476
C         7.27139501517654   -0.78766169925658    1.41787835658765
H         6.67771784102237   -1.20451864618352    0.61576579378790
C         6.82746817981918   -0.92036337710346    2.73080527140024
C         5.54637385398882   -1.64283324756018    3.02695645010343
H         5.36014200881831   -1.68197685625145    4.09761182203503
H         5.58438337672697   -2.66229655847693    2.64346990916067
H         4.70634799325161   -1.13980826564572    2.54828348013029
C         7.59443981129767   -0.36680056577243    3.74705401262827
H         7.25499644907038   -0.46048256593282    4.76967814188369
C         8.77857437841785    0.29647916696995    3.46597877782903
C        10.92854147744595   -0.36109828985475    5.27603696447201
H        11.67562185873272    0.09241449052614    5.94313225366791
C        10.14948693199359   -1.43378343674737    6.03327984131472
H        10.79574782746403   -2.29455028085538    6.20555498443077
H         9.29503583350009   -1.76876443125271    5.44725346944452
H         9.80294605986150   -1.08451986430382    7.00257242443553
C        11.65549552059978   -0.99617798652107    4.09566414206551
H        12.41143805841851   -1.70242085224554    4.43978012987551
H        12.14355190862076   -0.23539507038408    3.48826296028994
H        10.94627691033995   -1.53782617645594    3.47108089391553
C         8.85309929996008    1.43055636593407    6.13155410386562
H         8.43336995390815    0.47604384416211    6.46730057705560
C         7.70814766199500    2.37971094190419    5.80620495986596
H         7.04668023770981    2.47547330512796    6.66755209425779
H         7.12357488815342    2.01579613842264    4.96310636680328
H         8.10449267478493    3.35909444004418    5.56186964763109
C         9.73347798501539    2.02018655683323    7.22948410183991
H         9.12753871355463    2.31591590018688    8.08518533283680
H        10.25317205653498    2.89998994838444    6.85021857963453
H        10.47869362552244    1.30502146904653    7.57251624675142
C         9.32207902268158    3.73992274336158    2.77749372876521
H         9.19120532328161    3.53463929887336    1.71187298698334
H         8.48688193480764    3.26343631283853    3.29796317648846
C         9.19293946026159    5.25255900237893    2.94839085100178
C         8.07648467277844    5.76446690477961    2.02070348507052
H         8.33973635696567    5.60937555520806    0.97607520482194
H         7.90646560236841    6.82912922389812    2.17563381230210
H         7.14517924179278    5.23732826923100    2.21870765079754
C         8.81946258236440    5.62161645171811    4.38641165149601
H         9.47118311825003    5.09723393915369    5.07749364681796
H         7.78624654619823    5.34987910439098    4.59324832802795
H         8.92173778222718    6.69371530041114    4.54745907114911
C        10.49317860871037    5.96341844025142    2.56932508298678
H        10.77416566746435    5.70754369107834    1.55022620276239
H        11.29127963809964    5.65283286190378    3.24095161744330
H        10.37442771194767    7.04444739234735    2.63309832672019
C        11.69711584297921    3.59656966988546    4.56489147142459
C        12.07404694536677    4.42282897686696    5.61474834678522
H        11.43711257312840    5.22017126761624    5.97373199616576
C        13.31665476430519    4.22197575157394    6.21173841822308
H        13.64755678436599    4.86303667482962    7.01646014957001
C        14.12542543354680    3.17911471401882    5.77820041912129
H        15.07866546528726    2.98555448355647    6.24834140070936
C        13.69851419768793    2.37627209322404    4.73001128363664
C        14.50482050482222    1.20497727391288    4.24628468292259
H        14.15028316074476    0.87694952503333    3.26985723322013
H        14.41344544940518    0.37239043543323    4.94506083533994
H        15.55879690978242    1.46847052157830    4.17382745247713

