74
CSD_code = BUWPIT | q = 0 | S = 0 | Stoichiometry = C32H37OPPdSi2 | MND = 5
Pd        2.48389933500904    4.24360495300512    9.67565662386891
P         1.01892270591183    4.36730633273387   11.57122099679614
Si        2.05465739603059    4.54159431066057    6.33658679907666
C         1.32363086642121    5.27564285642447   13.13532594365116
O         2.47394128996576    2.95610654100125    6.41234462820512
Si        2.70510545177569    1.89063952493865    7.63608157248984
C         0.53675777036662    4.99961158677183   14.25179917477653
H        -0.18492187856732    4.19562864261899   14.20472090607814
C         0.66654076353640    5.73947267274368   15.41137806651953
H         0.05282473104868    5.50867362736541   16.26979607162017
C         1.57591911800274    6.78439955091388   15.46419109604733
H         1.67330934302992    7.37360672011042   16.36420349642003
C         2.36390156322340    7.06612404957827   14.36516581532734
H         3.08713016721819    7.86824135835184   14.40674110969495
C         2.26017848707717    6.31263182536969   13.19793885767241
C         3.16889409134108    6.60494869432722   12.07539256951842
C         3.25949956142955    7.88597748006359   11.54081598930668
H         2.61796357733634    8.66797598507050   11.92271829410370
C         4.14964359565009    8.15469998759939   10.51466564966434
H         4.20814822358830    9.15198892472386   10.10290185806196
C         4.96309007900209    7.15065556329668   10.01493041712325
H         5.65987390829464    7.36856021763661    9.21814094294005
C         4.89386828291620    5.87103266996893   10.54848255236348
H         5.57271815348057    5.10024872360464   10.20146202974494
C         4.00081078550140    5.59840843896992   11.57894779243161
H         4.01440371736951    4.63651276176213   12.08371725537225
C         0.59057044392701    2.73101894292301   12.26762492844493
C         1.55176188498867    2.11774534998295   13.07015727320692
H         2.46258141524988    2.65400211633297   13.30522109670940
C         1.34686424200135    0.84565839195644   13.56549713961974
H         2.09681973422837    0.38237973860767   14.19033621752500
C         0.18117331076167    0.16176603746366   13.25597469360817
H         0.02039193295133   -0.83508793656360   13.63921198396622
C        -0.77403528075535    0.76004861220417   12.45264724125947
H        -1.68354928684628    0.23013016933483   12.20875913374223
C        -0.57268362733284    2.03698110378944   11.95720009151456
H        -1.32698924217132    2.49480284312903   11.33281676455108
C        -0.63012394561919    5.01300826201258   11.11311155358172
C        -1.37948989084602    5.91818245757039   11.85351997131511
H        -1.00913228180448    6.29296991159127   12.79619723036682
C        -2.60700039290742    6.35253667040105   11.38139226493299
H        -3.18260131477194    7.05716121251197   11.96435126863878
C        -3.09836135402408    5.89352103305731   10.17155325126984
H        -4.05719391373997    6.23568245787366    9.81085662944592
C        -2.34873187983810    5.00466434092081    9.41702005668188
H        -2.71921300225430    4.65536042823574    8.46384459790331
C        -1.12036604306937    4.57827818075094    9.88219212268578
H        -0.50918639227576    3.90824175589584    9.28479156302992
C         2.62185150188449    5.51207919090164    7.85289726507458
H         3.64831681370717    5.88490696922633    7.86066399791675
C         1.74607898276622    6.07336598476683    8.75184350872597
H         0.67428197189609    5.99386183338549    8.58996252411712
H         2.05146987895756    6.90533967663784    9.38444765117152
C         3.84334570524098    2.66509003032320    8.92676194536529
H         4.77327516296428    3.13831153443625    8.61170866932625
C         3.63648284317787    2.45010840257693   10.26573173370962
H         2.90746333758434    1.71549913207774   10.59850802000588
H         4.41955152610929    2.67314222010995   10.98852842465002
C         2.94394239761983    5.20404581200895    4.79203336292450
H         4.02277437136702    5.16763295006427    4.89809016998696
H         2.66198995957770    6.23221774237864    4.59523579553154
H         2.67978571842978    4.61365418274395    3.92229040231484
C         0.16095163476164    4.62237814665364    6.11482913511953
H        -0.13053053277270    4.11273957563154    5.20160033327391
H        -0.18499701132927    5.64861264185223    6.04655541157196
H        -0.36341050838549    4.14650055258751    6.93728466131784
C         3.46987238722263    0.36193544021100    6.80953555200298
H         2.78638444616503   -0.05112112853564    6.07741780057490
H         3.68751103615339   -0.40919217237069    7.53909337164216
H         4.39167590478273    0.61043459194100    6.29682437138828
C         1.03299443727009    1.48627451743884    8.47301307244192
H         0.80077893129755    2.25462114535327    9.21826062861086
H         1.06041846950338    0.53254668243069    8.99135475388437
H         0.22142443224028    1.44996826558257    7.75202385448675

