77
CSD_code = BUWPEP | q = 0 | S = 0 | Stoichiometry = C31H42NOPPd | MND = 4
C        10.63391489903313    5.89103727019269    1.05000800089547
C        10.88509010070048    7.00634991880042    0.25860235216325
H        10.45108972287655    7.96724796144369    0.50090174863788
C        11.69679716344074    6.92094626745038   -0.86292425166104
H        11.87661872825791    7.80409751875998   -1.45885760238310
C        12.26853565226304    5.71452879263055   -1.21980812315654
H        12.90105346420582    5.64321422465298   -2.09258735394395
C        12.01567433000476    4.59259294318736   -0.45235485134973
H        12.44993080274641    3.64045848204416   -0.72932597111189
C        11.20363654027136    4.66992061912123    0.67162534275390
C        10.94142993777908    3.42627719024089    1.48391570597846
H        11.76732210104072    3.28350676740209    2.18843963147127
H        10.87577650920668    2.53293180897100    0.85539685351414
C         8.00742921014637    3.11153529121536    1.35008900634520
C         6.72086727410041    3.71701044427446    1.91703356152358
H         5.89513807042485    3.57747277639572    1.22029829329062
H         6.86762725450176    4.79246347560585    2.07071047472116
H         6.44308312919662    3.26463840974465    2.86566376294636
C         7.90010877217071    1.59712000069742    1.21733707854047
H         7.16132955957004    1.34911760905086    0.45570691494346
H         7.58124785003856    1.13858739294443    2.15037269724349
H         8.85089509805460    1.16108641568878    0.91684847304349
C         8.24698764378370    3.74612423741725   -0.02307188867622
H         7.37590793057266    3.59179788545891   -0.65885179168153
H         9.11094798698628    3.31795963662459   -0.52533902794707
H         8.40998878468424    4.82337249565462    0.08300818878555
C         9.66654480170710    2.69642311626164    4.00857680445630
C        10.71164506855275    3.50647658313648    4.78875118207607
H        10.76971320200125    3.16258546453997    5.82090245595042
H        10.43743413697797    4.56919694714238    4.79000966697063
H        11.70322889399174    3.40981744005639    4.34929246609003
C         8.37012148640372    2.67488580711747    4.81655048975902
H         8.55486577778232    2.28069272612490    5.81593757792084
H         7.61883274123880    2.04518681787346    4.34486143538488
H         7.97830640938661    3.68681097030735    4.91167269429785
C        10.17848890686014    1.27748898042401    3.77649887650658
H        10.44381712453831    0.83152429581803    4.73508117907381
H        11.06590758324806    1.27036125264816    3.14821643356596
H         9.42388545564869    0.64822538974993    3.31445197494049
C        10.68180096463599    8.58038832288577    3.26420422039953
C        11.66223805095957    7.75369365681732    3.84789542947784
H        11.47163341324636    6.67171449662444    3.90231075609337
C        12.84541832598491    8.27468774212019    4.32107864423024
H        13.57933217073545    7.61777749116311    4.76855826537475
C        13.10194636386963    9.63483232061497    4.22901627883104
H        14.02644414285071   10.04444592762269    4.60800012311208
C        12.16600588032873   10.45744580424229    3.62209033137036
H        12.37035136763115   11.51407399599895    3.51318007377181
C        10.97854354598899    9.94882664808368    3.14052969353598
H        10.28169910875787   10.59967463185419    2.63183518582142
C         8.35323910285967    8.60221740719934    2.58434624565687
C         7.89853134625501    9.72542619287805    3.30369618944222
H         8.54183176528938   10.17583959459956    4.04712546027347
C         6.63265382511175   10.23170836654671    3.09772731678595
H         6.30887023018782   11.09178320799660    3.66926971240043
C         5.76831389170056    9.65101107930735    2.18178544547939
H         4.78035845250263   10.05792917461181    2.02711692945732
C         6.19040127282907    8.53595323919808    1.47117270335984
H         5.52486249754539    8.07156814585545    0.75530274866137
C         7.45107061963505    8.01545361784475    1.66677172469506
H         7.78793054228248    7.14369736240318    1.08910193517891
C         6.63005354607268    6.38934363618383    4.57389328309791
H         6.12639146013508    5.43901635583929    4.80498036097166
H         6.33157701489836    6.72113130811360    3.57519286956477
C         6.33570492560426    7.43875972530084    5.64257355263224
H         6.42637611816886    8.43790535775635    5.21533554745878
H         5.34228041381339    7.32087522552611    6.06862502195537
C         7.45889479982952    7.18680671664652    6.64455764242217
H         7.21905892448902    6.33323238671318    7.28140192287469
H         7.67535892092128    8.04807278549635    7.27111234885898
C         8.61675443394493    6.85107105783919    5.71094057067597
H         9.10977589360936    7.76753286058585    5.36264509007926
H         9.36484407637843    6.19638426813235    6.16990176336708
N         9.55263620473908    7.99551448415566    2.77585876896257
O         8.04056813505260    6.15934105026614    4.60090080221086
P         9.40619567209355    3.73428755679605    2.45135473382306
Pd        9.41313247466145    5.96820517131123    2.65356984575349

