58
CSD_code = BUWROA | q = 0 | S = 0 | Stoichiometry = C27H26FeO2Si2 | MND = 8
Fe        6.49640280782208    1.76345409580579    1.96108979123314
Si        8.62450876617390    5.05536983144750    2.23194979092644
Si        7.72808350851464    3.32097282647266    0.88032133615407
O         6.38923664147770    0.19408534658395   -0.46162688950674
O         8.80671879620263    0.07411795001589    2.36557534749372
C         7.27650395741011    6.10169585695297    3.06365055362473
C         6.28645870216513    6.71392027431293    2.29876922194273
C         5.28206899391597    7.46025744464783    2.88794506984276
C         5.24301824683750    7.60159637389493    4.26546114487427
C         6.21530659781129    6.99636857156719    5.04318222689703
C         7.21993370290486    6.25682853813333    4.44473975780376
C         9.72307599327938    6.21818106351371    1.20435115270736
C         9.34355840032659    7.51282422978046    0.86480133478013
C        10.15610642151975    8.31586623177136    0.08397057044218
C        11.37029027667053    7.83589402549141   -0.37579284345364
C        11.76794192887128    6.55091295976754   -0.04375731560886
C        10.95089106243148    5.75435818943094    0.73597601292759
C         9.73652469163759    4.38369478929065    3.61631146027728
C        10.78569916217816    5.13799976526226    4.13376309486392
C        11.59053417185371    4.64484758890395    5.14484688791516
C        11.35997821941454    3.38014134364894    5.65998222044865
C        10.32083223163659    2.61521788883447    5.15684367686129
C         9.52095896645737    3.11666392939134    4.14621127848524
C         9.23204399941138    2.64438245600959   -0.11395440519049
C         6.59134901354649    4.09394833543648   -0.47276830238549
C         5.09963217355875    3.41451925201407    2.73105568979815
C         4.36025861436424    2.36103709798071    2.15033017893865
C         4.58094421039559    1.18824046644270    2.92039563323331
C         5.49071126772682    1.51323813106058    3.94631448900864
C         5.82929539119415    2.88435134090875    3.81813709056870
C         6.41819769744304    0.86274661530564    0.47240979419013
C         7.92693447859605    0.80473534166996    2.24580094901480
H         6.30577008717935    6.59941476551791    1.22386094235211
H         4.52555691662575    7.93023058319998    2.27495410517435
H         4.45799449651084    8.18095235294156    4.72926087282595
H         6.18995349241438    7.10287328717273    6.11842312802056
H         7.97919900579865    5.79106863081321    5.05745337433998
H         8.40329999261231    7.90193271171952    1.22718919936665
H         9.84285412288155    9.31982381905254   -0.16516485174780
H        12.00614900624179    8.46084411883583   -0.98599460181646
H        12.71775747583418    6.17227155571290   -0.39374140614096
H        11.27091474843948    4.75684868513792    0.99977436847003
H        10.97262133132659    6.12472427567916    3.73395626808744
H        12.40054644136369    5.24644936719955    5.53231160061582
H        11.98835440788004    2.99165321030920    6.44837195455712
H        10.13666762775586    1.62567678622245    5.55019874594449
H         8.71300961839771    2.51248765966668    3.75201853473380
H         8.93649556240330    1.85002274068404   -0.79202788249466
H         9.69336869420412    3.42880182064208   -0.70597431003330
H         9.99073933173838    2.24011727203696    0.54831224683715
H         6.34046351471842    3.36063027288821   -1.23279344925556
H         5.65935423236298    4.46569324341942   -0.06148946744747
H         7.09215052796710    4.92094858912426   -0.96731079630010
H         5.05481138366884    4.45390142099918    2.45576234055904
H         3.62496884844118    2.46481175785922    1.36895321192814
H         4.05909571226935    0.25255113955564    2.80661872310604
H         5.79450270967123    0.86370830583933    4.75121469222919
H         6.40690161753829    3.46129347602129    4.52117645698242

