62
CSD_code = BUWXIC | q = 1 | S = 0 | Stoichiometry = C28H29ClNNiP2(1+) | MND = 4
Ni        3.55423535846678    0.40824022228320   10.42310170681413
Cl        5.18864750800775    1.11235601894488    9.40681150220754
P         4.00000711065708    1.43801842680421   12.28584484430380
P         3.14044050821213   -0.89405779614306    8.76998809709961
N         1.90856218595005   -0.32752112088326   11.34330659810573
C         1.54941065106402   -1.69250486320133    9.33403495657077
C         1.93101512028610   -0.23218843181551   12.81208967653178
C         1.98543363643600    0.93775796757160    4.74754162841849
C         6.34110411936228   -2.86325688992331    7.29090157239299
C         2.71986805715391   -0.18835887532745    7.16106323124392
C         4.60379978490096    3.08222828807259   12.71540006652613
C         3.88044856761887    3.99720747748119   13.47261877956237
C         5.68041997784542    0.59906734010197   14.38009203145531
C         6.52545445503268   -0.31044728030034   14.98955799629751
C         1.52580025054353   -1.66409969690458   10.86046782083559
C         5.38743144905545   -1.90552217393099    7.57648400873636
C         6.32955290428361   -1.78615311957281   13.10004069430034
C         5.18521117761576   -4.43885340874902    8.68818681783327
C         4.22613847725260   -3.48567707082642    8.98194736150707
C         2.54256685702480   -1.00299729794109    6.04667816690887
C         2.16132985624327    1.74778248210235    5.85789580811365
C         4.31493355735478   -2.21967691291787    8.41127649934548
C         4.43392747161177    5.23299761044755   13.75917346087282
C         2.52740419495826    1.18558508330697    7.06722817824935
C         5.15541800186315    0.31194001703008   13.12494524649952
C         2.43196366103081    1.14469489266601   13.23996910568031
C         5.48566463879724   -0.87990124738314   12.48595945015799
C         5.86693768578245    3.41891884668653   12.22764661213782
C         6.40909401201088    4.65580332828030   12.51740533146303
C         2.17484849115705   -0.43310659051089    4.84219613216047
C         6.84728008140005   -1.49996530452567   14.35358487076216
C         5.69357837012889    5.56230229745360   13.28560835181544
C         6.23909075527173   -4.13120692718305    7.84309442555785
H         2.61531679079713   -1.00024243278257   13.18826699183534
H         0.93343756286035   -0.42791704506169   13.22703885121379
H         1.70509259024443    1.91558820481660   12.96879833755901
H         2.60652023051411    1.18149078743009   14.31676498588962
H         0.73323376422448   -1.08475110435301    8.93093256628766
H         5.43464464702723    1.53249837917806   14.86680901187971
H         6.98373018229171   -4.87914256377718    7.61873955404019
H         3.41239130957150   -3.73654223669882    9.64723987652916
H         2.68635877560645    1.80620396916888    7.94372639688735
H         2.89665190901660    3.75209672239610   13.84447909334869
H         5.46368839288401   -0.91011882307780    7.16151007192237
H         2.03857771506258   -1.05836582314762    3.97316220946119
H         2.24953116003276   -2.37949437557241   11.26375465639114
H         1.70412637583276    1.37545865043961    3.80222871605068
H         1.43960199415649   -2.70612286287907    8.94729445797258
H         5.08878714168722   -1.08115285056760   11.48539065002017
H         2.70022407901959   -2.06953399172616    6.12590766231770
H         7.51038250194025   -2.20270575822166   14.83385055393287
H         1.20611745030813    0.33850234145731   11.00061757977590
H         5.10950233230696   -5.42441090819640    9.12226042884418
H         2.01855276616805    2.81454328348416    5.77931116893717
H         6.40842034515143    2.70502527251993   11.62104700852491
H         6.58964087325404   -2.70767461877490   12.60156776943222
H         6.93820408227279   -0.09031168188680   15.96209865294528
H         3.87753671110838    5.94163115755833   14.35376338015151
H         7.16632709126751   -2.62106082483339    6.63939546218058
H         7.38744231692248    4.91545667017985   12.14346835515222
H         6.11611218632172    6.52905383647560   13.51170726925077
H         0.52992778775968   -1.93900666474974   11.23342725079275

