73
CSD_code = BUXCUU | q = 1 | S = 0 | Stoichiometry = C21H47ClNNiP2(1+) | MND = 4
Ni        3.66736562048717    4.00563553394343   12.34449208648190
P         5.11515280831021    2.34137221357906   12.51497629370718
P         2.25300010241829    5.68688660471137   12.59802111555477
Cl        2.16087373427736    2.73058136571799   11.78569463049544
N         5.20806224664074    5.31528981455792   12.60952116709589
C         2.26873736976115    5.55775944950391   15.34097313954843
H         3.00789357588889    4.78174127087267   15.12643553681364
H         1.76425792040060    5.28473068626696   16.26564982661931
H         2.77164991066409    6.50721672062133   15.50856396127285
C         6.36360619450322    4.70082993654219   13.29157271485571
H         6.12606718056806    4.62737937885745   14.35417847021237
H         7.24033947306281    5.35644633088499   13.19131547037029
C         4.79794447137625    6.52727544694827   13.34483926044043
H         5.57836515216682    7.29577987222277   13.25039418323013
H         4.71706236935836    6.26701819843785   14.40160865675061
C         5.10504547477895    2.28803299217277   15.26604699592240
H         6.13171092322974    2.62028868434459   15.40075238359269
H         4.79342683375961    1.80071645357205   16.18779207001699
H         4.45501604596433    3.15285200157385   15.11436621272055
C         6.69203974789831    3.31251889698781   12.74438708941836
H         7.37926455116474    2.79938629440402   13.41784368305001
H         7.18419550003107    3.39948433904583   11.77560407215115
C        -0.03646883340595    5.39416480770225   11.00087719103562
H         0.19919930166481    4.33362254444621   11.05524593771601
H        -0.51674339444521    5.58351085694611   10.04259122226508
H        -0.75207127503211    5.64645457495599   11.77821423730988
C         5.60834635361911    5.69749250502066   11.24878029861049
H         5.91851976861604    4.82381174456493   10.68159410384628
H         6.44240438472304    6.40792804273427   11.28150036405149
H         4.77837356692985    6.16081448565983   10.72186454213878
C         3.46333665669688    7.08466806956458   12.85195607348762
H         3.60070690357974    7.59446054059325   11.89826660379002
H         3.07971399524731    7.81643712509489   13.56360751852334
C         4.96321294681493    1.31048702916703   14.09571340748593
C         5.45862838681364    1.28537274506270   10.98434321470686
C         2.11277792034948    5.95936575750022    9.88731303334943
H         2.91349716916520    6.69068742041441    9.78976577677863
H         1.51707221273970    6.01122509790949    8.97889136176225
H         2.54242489458612    4.95473752381650    9.94569998867965
C         5.28578788374945    2.23998704610689    9.79559871812858
H         4.36766164152703    2.82632896795860    9.89943106285398
H         5.21113805735386    1.67130487452020    8.87150604899619
H         6.13568407851265    2.91267926886951    9.69240465572554
C         1.22949096272844    6.24421127055967   11.10892572202565
C         4.41273378572014    0.17612667981593   10.87142369353041
H         4.55972468889718   -0.58816421535876   11.62927736592013
H         4.50367546422385   -0.30679853949176    9.90018223673811
H         3.40566510781124    0.57882408267575   10.95428881539132
C         1.24793017910396    5.63825416810780   14.20187675654648
C         6.02021581616371    0.21774366917167   14.21019345663403
H         5.82888682487100   -0.59521474075049   13.51606513717554
H         5.98913070724156   -0.19793875274938   15.21632681379658
H         7.02457770674823    0.60168069868618   14.04213680235985
C         0.41498374390743    4.35649617901145   14.23580034827160
H        -0.31878832987948    4.31993615317941   13.43837360254716
H        -0.11534616462611    4.29395366462737   15.18407229761316
H         1.05690937442905    3.48192419471637   14.14617880733194
C         3.55936919847736    0.70832298244026   14.16236489963042
H         2.80670445153660    1.49479279603894   14.13891870651621
H         3.44488395880406    0.15476802848216   15.09230092715391
H         3.36276668591626    0.02873983710113   13.34034433496879
C         0.35506589793593    6.85872829171535   14.39547924858794
H         0.89945654173045    7.79089534857480   14.25744416626732
H        -0.03490532796172    6.85117528926495   15.41229340979766
H        -0.49553003035915    6.84006772830978   13.72049572238359
C         0.85360543339064    7.72502358704918   11.12936997884717
H         0.17560512928567    7.96230663501644   11.94186559224890
H         0.34436852478764    7.96054036641706   10.19628099402916
H         1.72048121006627    8.37704592400275   11.20083180911974
C         6.85947558193250    0.67638717480779   10.94523231109619
H         7.64446524184434    1.42200178717083   11.04321968202309
H         6.99204444036305    0.18729184491056    9.98152240451888
H         6.99897336839390   -0.07448564788093   11.71531957536500

