55
CSD_code = BUXJOU | q = 0 | S = 0 | Stoichiometry = C26H20Br2N2O3PRe | MND = 6
Re        2.21772819469437    2.38683895964693   16.44391098240646
Br        2.23995417299498    2.85386364280412   18.86869899182901
Br        0.19182177029677    3.69291038207802   16.18785376543266
P         2.45118654272334    2.69046187071153   14.00631620437926
O         1.60267422980689    0.84660249204281   16.45054736145809
O         5.65016724254070    4.58881218562209   15.81451850160802
O         3.55970815183397    3.89322128575576   16.17398045321719
N         4.20806410478321    1.51859043878557   16.68979256026982
N         4.67124601641108    0.30327590799235   16.97444862013949
H         4.03052366603322   -0.44263043854079   17.20265545189221
C         6.03302335721538    0.31057155572159   16.97202392598154
C         6.96507515646887   -0.69806113555966   17.19600661328849
H         6.65661892685016   -1.70145575891061   17.44337496136618
C         8.29295072482338   -0.35173207165762   17.09042590909003
H         9.04876832207828   -1.10405922721608   17.25800360081593
C         8.69843130290041    0.95314648871209   16.77295748927143
H         9.75455907093171    1.16420854159612   16.70442420485994
C         7.78793936094320    1.95863904261758   16.55466922678698
H         8.08289747914678    2.96657766331518   16.31287793391113
C         6.43471773911938    1.63334628454594   16.65505934504197
C         5.21766480425383    2.34405751910913   16.50213684180006
C         4.84375209909100    3.74539065828178   16.13961941181241
C         4.12898790675937    2.20282678817290   13.51680793740445
C         5.09105197543001    3.06041628239706   13.00069906209529
H         4.84518011834735    4.08621306812321   12.77160507002994
C         6.37646428818316    2.59288215242085   12.78066461083082
H         7.12615067284612    3.26593601175502   12.39381044221038
C         6.70318033944070    1.27885031999575   13.06568545796958
H         7.71130726483147    0.92633861939119   12.90909390647946
C         5.73559930997323    0.41013749891312   13.55020635121531
H         5.98743092417751   -0.61916046744720   13.75947477189272
C         4.45449926708788    0.87002508652370   13.77640728029183
H         3.68672243092633    0.21094061962203   14.16722299322523
C         1.42628253895624    1.56748637620865   13.01330520986880
C         1.71184387186360    1.43418319249719   11.65571516902191
H         2.52765625980751    1.99729782020577   11.22165696529697
C         0.95115030099051    0.58611284942297   10.87467611158155
H         1.17270774161993    0.48156628359121    9.82292048041519
C        -0.09378918507199   -0.12894787017266   11.44109344541346
H        -0.68629123174841   -0.79019460829008   10.82673686669446
C        -0.37649095722119    0.00120603988783   12.79030990050637
H        -1.18898377490712   -0.55559029319651   13.23121563347485
C         0.38257524996311    0.84771308911324   13.58101479246747
H         0.16894628764604    0.94291971512854   14.63853164873963
C         2.08954302688354    4.34851881772064   13.37665430661788
C         0.91768713285935    4.54457888746289   12.64561740809329
H         0.26345803268701    3.71035498215578   12.43817618867926
C         0.58373232566707    5.80942711484111   12.20131309962450
H        -0.32644249317193    5.95330386870718   11.63929013437638
C         1.40347564099295    6.88840862481194   12.48926599962925
H         1.13756143885321    7.87665844401390   12.14559781908686
C         2.55447464415642    6.70176020627403   13.23617646331952
H         3.18571826904821    7.54255094625261   13.48160095777950
C         2.89887723816888    5.44111729050088   13.68948454826933
H         3.78016070800850    5.33008595553423   14.30336661073854

