57
CSD_code = BUXMUC | q = 0 | S = 0 | Stoichiometry = C23H26Cl2O2P2RuS | MND = 6
Ru        2.44715955978352    1.86429374685577    2.30635685000326
C         2.88160691020492    3.49883180479312    1.59252767625338
O         3.14967626500344    4.51975627555407    1.14588810572827
Cl        2.70446799872554    0.82228405563307    0.19136569930553
S         0.24009176899632    2.16347150825407    1.80137738590865
O        -0.32370256950212    3.25297505879553    2.58876210197586
C        -0.85424055023896    0.72827463826480    2.00222007878123
C        -0.13553431103940    2.52641432857748    0.06165629819674
C         5.66894023336734    0.84718055034428    6.87739587930632
C         5.66610225520549    0.77336720062046    5.49542156919363
C         4.59630411371253    1.29085259709656    4.77383512712215
P         4.54237813000842    1.26196564215160    2.95525812383349
C         5.17521083673295   -0.36818914423593    2.45325258527384
C         5.86074041000410    2.39195258301755    2.42822455994073
C         6.65482433860202    3.13892475456161    3.28765267994988
C         7.59945531011731    4.00677609012460    2.76556020765567
C         7.74822602369483    4.13467447729502    1.39513875067178
C         6.94615614592717    3.39908166400744    0.53540758281834
C         6.00038486679859    2.53348743157626    1.04874782701192
Cl        1.97603661125566   -0.22812864351039    3.30462666004012
C         4.60929623677353    1.44168921046113    7.54588632006453
C         3.53920556604567    1.95550022745473    6.83490730772898
C         3.52398604712777    1.87928540963703    5.44722111013653
P         2.12958481187511    2.53993627797040    4.47022365604549
C         2.27088226993373    4.33298860020475    4.78794276065404
C         0.68032056834981    2.03770206927363    5.43558348944669
C        -0.43071590550117    2.87215826030575    5.52029351872389
C        -1.55380511301869    2.45587128834813    6.21222061640176
C        -1.57931107623400    1.21087631737473    6.81933244249976
C        -0.47562362130067    0.37764934211916    6.73456092328122
C         0.65141291023551    0.78456524610072    6.04496678632871
H         6.49835900639381    0.43955455305112    7.43612242098057
H         6.49369488831576    0.31414733021655    4.97359574996725
H         6.53382623166424    3.04562326874961    4.35803910567533
H         8.21816352274129    4.58882933708307    3.43307089074837
H         8.48475022726527    4.81589296652946    0.99533122943965
H         7.05431063918651    3.50902445803997   -0.53318537095058
H         5.34629369309837    1.97049573085623    0.39327285714707
H         4.61534793461736    1.49801654999962    8.62429152033052
H         2.70370854976055    2.40502700688865    7.35453013356662
H        -0.42776381315018    3.82889764177235    5.02206464070133
H        -2.41531597857516    3.10465972312636    6.27227524354381
H        -2.46064871050226    0.88783377090353    7.35399292193948
H        -0.49383420459015   -0.59614302915196    7.20126035813665
H         1.50492928961778    0.12731599384815    5.96352335163748
H         4.99898186306468   -0.45997047681728    1.37905762104028
H         6.24042849302106   -0.45375558674421    2.66899821258141
H         4.60203360622422   -1.13685716462450    2.97242311340319
H         1.50587643884389    4.84084226993435    4.20105615796921
H         2.14797844354949    4.55772803994773    5.84726781865465
H         3.25389825627384    4.65795015324030    4.44305179902542
H        -0.80925979366869    0.42084358125150    3.04327562522905
H        -1.86282931227307    1.02027539597061    1.73407635507763
H        -0.47501862363443   -0.06178304406530    1.36211998372062
H        -1.20841005527926    2.62033732492937   -0.05922627078219
H         0.35807648188900    3.46201402582000   -0.18350839359977
H         0.27310588451243    1.72113131021474   -0.53989175547738

