120
CSD_code = BUXVOG | q = 0 | S = 0 | Stoichiometry = C58H52N4NiO2S3 | MND = 4
Ni       11.80690413272271    3.35926410684697    5.59776634501291
S         4.30502641943407    7.40222260302750    9.89768415929893
S         7.95417582548888    8.58067283363896    7.82651430989415
S         2.41894648056959    3.44614310212433   10.04998123281303
N        10.56447561615249    4.85109303356956    5.51601310259641
N        10.39627356812779    2.22324110635144    6.33332915480245
N        13.02699517795241    1.83310401189589    5.58001477812497
N        13.23152734503291    4.52618651817110    4.94407826937994
O        -0.60912453208450    5.30119983049567   11.57004979865708
O         7.33571380462356   11.79231061433154    9.93656090912319
C         9.28390429093639    4.88045579041544    5.97932068109316
C         8.59180725244687    6.02239831151597    5.46073115874156
H         7.55141591536840    6.23273178772073    5.60639082299363
C         9.48364462674710    6.71580066847629    4.71642324484425
H         9.32166773368449    7.61244318787082    4.15196887827865
C        10.72700413909133    6.01351887085482    4.80743548658338
C        11.93839369053378    6.52474268704656    4.35535607402201
C        13.12650644029681    5.82059784681125    4.52270724297622
C        14.42599220296844    6.37729984753056    4.27939901391734
H        14.60911970948846    7.38666768275251    3.96631012491691
C        15.32253725547373    5.40013695778630    4.54302306491064
H        16.39281843038283    5.43378031561526    4.47607257527736
C        14.56848261072797    4.24267018415133    4.92327007771182
C        15.12530247755222    2.99016747807136    5.08818313897705
H        16.19245477812453    2.88019135193343    4.97104478354326
C        14.36452184261945    1.85768121497746    5.30641455068780
C        14.89050018302735    0.52698178359282    5.23898967976614
H        15.91403045585152    0.28834009703093    5.02302348421377
C        13.85452601762130   -0.31220831434246    5.46216780653091
H        13.85235432502382   -1.38448355422227    5.46297033389664
C        12.70725618342277    0.51081638928407    5.72061945072309
C        11.48853242218324    0.01990303839893    6.17183967535802
C        10.45029000583576    0.87317732411266    6.53658974157644
C         9.30230074105125    0.43176028022952    7.26884731440496
H         9.11886066705291   -0.58139739615056    7.56863984382654
C         8.55738799445274    1.53170620782472    7.52442406371102
H         7.63669498113625    1.58255248932089    8.07042279167008
C         9.22332277153238    2.63634133388058    6.90304348006295
C         8.67865674347492    3.91886395855930    6.80007609345846
C         7.45368040785187    4.25882837873005    7.49267718935031
H         6.70446685424163    3.48883394098846    7.59278434156574
C         7.25504751524135    5.47604530899620    8.02929521094648
H         8.05854775148172    6.19457539835505    7.96922160838009
C         0.85945719837130    3.64544012635117   10.73631470517762
H         0.22551650093956    2.79776414946505   10.89291944396979
C         0.58316818792253    4.95482417430945   11.02669735020225
C         1.65318194478749    5.81695086663862   10.69037934578120
H         1.65524242942346    6.88257615790822   10.83110127732677
C         2.72344932255504    5.15432366560526   10.14637124211132
C         3.95285362826311    5.70948447088939    9.68491288397661
C         4.97855326388571    5.07650776127004    9.04239637252686
H         4.94706175879950    4.02349807719365    8.82964648123439
C         6.06388941554515    5.91829549144218    8.69994744656398
C         5.84875205137023    7.23305450340003    9.10427937911005
C         6.64365701096060    8.41093088949469    8.96497746336019
C         6.46864657255963    9.57990836647176    9.66129149977829
H         5.72047043821572    9.71609260180676   10.42029531904681
C         7.38473841110206   10.59794494823768    9.30490708486368
C         8.24465825936610   10.20377276155171    8.31899344323146
H         9.03888692239574   10.74661404049948    7.84921890758570
C         8.30213522531494   12.75646170446407    9.56892799848302
H         8.18525596671104   13.01593165670305    8.50698979909680
H         9.31058699623333   12.34418970345093    9.71639810860431
C         8.10392101308892   13.99031987735345   10.44210555050096
H         8.13094636805964   13.67905969928817   11.48771728872316
H         8.93523828630023   14.67233745205517   10.26147039223189
C         6.77116825465422   14.67772711212944   10.15094371863027
H         5.98241748440657   13.92593112534177   10.21382676948746
H         6.78151406294833   15.06860018877559    9.13043735901789
C         6.45333642942579   15.81076814365848   11.12555837822004
H         5.43322613873213   16.15448655178353   10.93754038019484
H         6.48773956991534   15.42708389010276   12.14774497230307
C         7.39927613601989   17.00368872622969   11.00299356630614
H         7.40184583479495   17.35651514183752    9.96899056133348
H         8.41596331673478   16.69657914327930   11.25359401592621
C         6.98388881128229   18.14375501318851   11.92514298618648
H         5.98064868950066   18.48689330164731   11.68153538796826
H         7.66699264831903   18.98443135363940   11.82804456576359
H         6.98949033683892   17.81535799864135   12.96227844529722
C        -0.86253532471213    6.68355234912814   11.74930728439368
H        -0.77632210521301    7.20744666275029   10.78674971489124
H        -0.13196374199598    7.10886039564975   12.44924716582591
C        -2.28077933945416    6.82356332666817   12.29263293833430
H        -2.31204911712390    6.42860532416349   13.30926300085810
H        -2.93236106957607    6.20199223607855   11.67543991968434
C        -2.78654346368006    8.26468185464256   12.27317111261785
H        -2.73184084094800    8.65335989043451   11.25344477518895
H        -3.83828382624738    8.26294285342269   12.56806402484109
C        -2.01579807407891    9.19309088275067   13.20976606706760
H        -0.97845892859479    9.27412987738220   12.87991398548065
H        -2.01392449976875    8.76948940090827   14.21665662293045
C        -2.63100606402460   10.59046676174350   13.25327455729054
H        -2.64132611418413   11.01047479613618   12.24484869758084
H        -3.66718952642875   10.51812140710233   13.59132853616360
C        -1.85969307591328   11.52081465771136   14.18127383272714
H        -1.85360539473625   11.12820432187977   15.19580170357580
H        -2.31465761634546   12.50834238492212   14.19837199500203
H        -0.82909581205173   11.62364964748889   13.84850819558052
C        11.97829972469918    7.86953239792224    3.75315958657052
C        12.47271594692842    8.04633106644769    2.46400953146580
H        12.81579826335696    7.18641100964715    1.90719796962339
C        12.50843020260428    9.30594557751557    1.89445130338464
H        12.88732835249682    9.43056431869882    0.89053652003754
C        12.05926772256028   10.40515602755527    2.60717744933977
H        12.08910822008378   11.38873875209507    2.16202400569854
C        11.57305622580796   10.23859843227013    3.89333384449548
H        11.22664846605174   11.09469397817731    4.45419287677889
C        11.52994665470114    8.97976931757612    4.46383501848280
H        11.16015130916587    8.84913571350752    5.47066146248988
C        11.30549721571890   -1.43245934141162    6.35728991277819
C        12.10018871683819   -2.14542048476733    7.25002685948556
H        12.85372958502814   -1.62355067383252    7.82206096191168
C        11.91353062455878   -3.50520833328630    7.42015110206136
H        12.53273396578305   -4.04820995492729    8.11934556037747
C        10.93503307430636   -4.16958367718646    6.69961574977270
H        10.79230342981645   -5.23190669138787    6.83183128122692
C        10.13753948861988   -3.46621743065718    5.81218595748002
H         9.37175626974926   -3.97984836384079    5.24938606899459
C        10.31727415709249   -2.10538093503556    5.64462200049344
H         9.69817818533994   -1.55433917726510    4.95157586611951

