44
CSD_code = BUXVEX | q = 0 | S = 0 | Stoichiometry = C23H10BrN2O7Re | MND = 6
Re        7.26781755648345   13.81267151277785   12.67168658643729
Br        5.59633351211132   15.37600720139257   11.53449924888123
O         9.05235050764738   11.63801850853083   13.93948963642459
O         6.99306912789546   12.62700124692083   10.87057390459877
O         3.50367400099591   12.05798172962290    8.83988699452924
O         1.64827486842661   11.62313924773661   14.33878139443504
O         4.37442134268448   12.37982288157583   17.33613360138897
O         9.62368190601066   15.29438542116631   11.33187405908716
O         7.29754003415704   15.68224777847672   15.13290323285968
C         7.07036463492818   11.94496703010737    6.75913908457724
H         7.99187949394547   11.92120968616102    6.19886596885925
C         5.85280845373131   11.80328785462952    6.09748817876927
H         5.83604490277405   11.66796593315506    5.02710015379186
N         5.39615518039162   12.71949731653241   13.24956487832191
C         2.15190383496327   11.80500571287100   16.71378101747664
C         1.67595410901209   11.70288487710610   18.02355799043021
H         2.37186624493636   11.90155089604132   18.82444832015565
N         3.20092688635399   11.99764581636122   12.76481061552090
C         8.39294698413004   12.44932093976477   13.47347407145723
C         5.92575602901889   12.39555001894192   10.30026696575839
C         4.61669427077786   12.33676168911416   10.93731559294902
C         3.50894537601780   12.18851808376207   10.15175250350008
H         2.51929927807969   12.17694603727489   10.58588277128228
C         4.69067432708022   12.01754751501316    8.17964685776827
C         5.90808570797524   12.15630633476384    8.85608588608436
C         7.09908292245663   12.12317708166754    8.12338352306413
H         8.03034387289196   12.24591483365151    8.65553323821383
C         4.66578650991444   11.84043427254205    6.79740096652537
H         3.71256954507486   11.73939946667385    6.30375001004072
C         4.41461841957850   12.37946212022340   12.38778455362244
C         5.11411167528607   12.62575640675520   14.54547240547279
H         5.89922220740686   12.85875318175743   15.25571864193118
C         3.86577461864561   12.25772044452319   15.02783916047830
C         2.89841099552104   11.96676248917557   14.05012977488342
C         1.27398965692710   11.55433684773323   15.65246179604033
C         3.55628286007611   12.17277827839765   16.46481983831799
C         0.36462749653237   11.36260689304806   18.26971986499443
H         0.00543475440849   11.28743152526685   19.28409155286729
C        -0.49832038814474   11.11632121952328   17.20664650966419
H        -1.52651810530679   10.85008937532917   17.39759276944552
C        -0.05128505906335   11.20972059259306   15.90459554626353
H        -0.70463836166653   11.02290149267958   15.06744049114917
C         8.78376501624360   14.74607522948932   11.88019490097388
C         7.32767279269101   14.97461697917062   14.23211494070936

