73
CSD_code = BUXWUN | q = 0 | S = 0 | Stoichiometry = C34H27N5NiO5S | MND = 6
Ni        6.84814333304437   21.74906303656378    9.90500761198541
S         5.85651434992342   22.42734712235885   14.76087611869485
O         8.41327312110528   21.35339496003763    9.04906983365798
O         9.60544181321638   20.65702491709712    6.85830448137860
O         5.98172600208454   21.49560080695516   15.83970270452375
O         5.94497506544532   23.82482257443385   15.06934624101166
O         4.48721806913555   22.06456514881475   14.07423087910705
N         7.47856079595516   20.57835895106655   11.59219758206619
N         7.38603034903818   23.86736474281820   10.09703945301773
N         5.32880881414550   22.30613141767532   10.74509387180365
N         6.05175967912453   22.15908223284521    7.84568230924294
N         6.08537984536237   19.72387028255570    8.99522875933162
C         9.06628471997914   20.26116463458541    9.11139922985149
C         9.78109484924055   19.82914461004666    7.93805935348204
C        10.52918394576030   18.68150565821587    7.94444369020959
H        11.05039429045310   18.35581396374570    7.05738033164043
C        10.62457841424219   17.90080284732556    9.10475820823717
H        11.22401386688717   17.00387340666818    9.08720529630023
C         9.95924085304671   18.27456648272599   10.23738896245046
H        10.02173628069969   17.66764130533221   11.12946801929855
C         9.15881552406730   19.43251926467804   10.26570290729977
C         8.43773439446224   19.73468593643072   11.45969779354913
H         8.73133625336872   19.13599898788868   12.33071519942424
C         6.86258665245260   20.68896667060455   12.90081784391432
H         7.19502050854914   19.87740886522594   13.56352004447385
H         5.77753979038548   20.60673248976918   12.77971394479152
C         7.16107147761833   22.02407555588188   13.56094788533887
H         7.20420504386192   22.83589306982231   12.84398022332462
H         8.07421368077041   22.00654490960620   14.14872936620581
C        10.28985795544349   20.34932822773952    5.67406056646154
H         9.97222421854068   19.38396191157426    5.26316972871856
H        11.37480595803783   20.33755814715245    5.82498512654431
H        10.03328682132590   21.13997858047395    4.97029286926692
C         8.37710226904900   24.62740376065110    9.69142752900782
H         9.06721343368349   24.18520814125925    8.98582204617584
C         8.54691776059936   25.94382738413863   10.14213181017600
H         9.37796189238300   26.52743310150539    9.77616709522833
C         7.65928057608956   26.46971612093264   11.04673523250974
H         7.77381719775650   27.47754124469044   11.41993600906254
C         6.58830014518439   25.67883593581212   11.50916126512067
C         5.64132315430895   26.08688253729282   12.47055646884219
H         5.70184159778376   27.08545362736942   12.87400870949509
C         4.70465349207703   25.19949256691904   12.93480188696963
H         4.02850243064976   25.49623760207004   13.72181517771242
C         4.61557742368562   23.89369747317557   12.43914729764917
C         3.74613584618756   22.85232272605117   13.04560359744351
H         2.90073604066503   23.27511489334756   13.59549348835932
C         3.34720206966152   21.87284907227737   12.00030189687498
H         2.42875527720363   21.32568812793402   12.12408130347919
C         4.20203722608687   21.59104378796125   10.99531616466130
H         3.98853531000923   20.80241446888918   10.28548707670243
C         5.45560861879181   23.48577566109385   11.39729439473635
C         6.49677046678504   24.36873585782933   10.97784947322486
C         5.97875420208715   23.34625023370207    7.28852756639311
H         5.74834211745785   24.17583385320103    7.94370596865160
C         6.18042293693834   23.56395998663253    5.92045656525098
H         6.11843139043121   24.56477321463578    5.52196248122066
C         6.52553754836491   21.20863886454043    5.67290640140294
C         6.82582200914716   20.04222101318462    4.91307852993171
H         7.00949150883242   20.15719767151526    3.85424678802710
C         6.90209641236902   18.82506898296397    5.50186019864198
H         7.14987995006878   17.94438298877087    4.92618064084833
C         6.66294851952171   18.66848989744020    6.89676965747732
C         6.74067409434546   17.42851756001594    7.55351232448080
H         7.00861940788624   16.54313088682581    6.99468562832077
C         6.46368306530515   17.36749978240062    8.89600555476863
H         6.50519505825724   16.43262580773052    9.43230700226347
C         6.12030760672091   18.54446550294462    9.57196030180019
H         5.86435966160107   18.51416173363083   10.62276512240449
C         6.34532225757847   19.79878936768893    7.67877372692992
C         6.30078361272908   21.09707959962416    7.06115646395588
C         6.46537031088581   22.49391178564140    5.10926932347944
H         6.64172936405413   22.62263545699433    4.05051539373362

