79
CSD_code = BUXXAT | q = 0 | S = 0 | Stoichiometry = C23H45CoN5O4P | MND = 6
Co        8.56226392888714    5.77498438331387    2.65067406333100
N         8.40224330779892    6.24053633937660    4.43567993809094
N         6.71227761805624    5.66406234734495    2.72535364630224
N         8.76567495042848    5.32288381977608    0.81060130206657
N        10.46216410209469    5.83189851039538    2.56537556727161
O         9.41838865309539    6.51784273452035    5.19417751816495
O         5.98657600412426    5.29649960372686    1.71464056960262
O         7.75475785981636    5.08547406282073   -0.05097521250932
O        11.28707250192758    6.15385390649591    3.58189560923284
C         7.17777701006173    6.33919261740976    4.85932840133717
C         6.19738180413365    5.99558144109428    3.87081982528345
C         9.98625999519019    5.24066235819996    0.39705720993334
C        10.96975006260836    5.53619072996049    1.41467255056839
C         6.82771447350919    6.74573943939496    6.25460650013801
C         4.72603883126224    5.99640140124840    4.13474944819493
C        10.37430546520649    4.84529508947860   -0.98662546898319
C        12.43377787081610    5.46764888614697    1.14565647028864
C         8.57620955419938    3.76941573647789    3.10469454654342
C         8.63455281052345    3.37930517553082    4.58423383490066
C         9.65774290776156    3.15948047981307    2.41616200588926
N        10.52981147372496    2.65606104658248    1.85936392067722
P         8.40926033439198    8.01010761713853    2.02757924259152
C        10.04720716152240    8.69972891622860    1.51115589856253
C        10.10064711331249   10.15167704895690    1.03931953022737
C        11.54478001988995   10.64900633170921    0.91963007957565
C        12.21081840427358   10.89339425285452    2.26889142422183
C         7.36472814215973    8.42209727434155    0.55853962369057
C         5.85914347726997    8.29714333745054    0.77771709327555
C         5.08860966835413    8.71156607485650   -0.47438068523077
C         3.58590407959916    8.56051827708699   -0.27481255199505
C         7.79595652723312    9.25620216325355    3.24882072837820
C         8.78555544812380    9.58555258711938    4.36400762274633
C         8.14754856752359   10.48069944919454    5.42474936425567
C         9.13163701191388   10.79932768118618    6.54314406996767
H        10.62417566890885    6.32023116840628    4.39115387644790
H         6.89649237038331    5.12074267538517    0.56283981670077
H         6.12687693754667    7.57888798881771    6.25142007901245
H         6.36599666001551    5.91660790116850    6.78978895324439
H         7.73779392805579    7.03618125028425    6.77451883056060
H         4.48650991933660    5.34699743832773    4.97495817147768
H         4.37651820748020    7.00133312849562    4.36943331781054
H         4.21099681116760    5.63880513008526    3.24599917020626
H        10.95242098065367    3.92390439229689   -0.94394764565194
H         9.47981512496591    4.67868700562207   -1.58097672953048
H        10.98454564206309    5.61450063009661   -1.45739371796981
H        12.69143548650280    5.99124958672846    0.22770241820111
H        12.97795004491687    5.89806409182947    1.98243235456427
H        12.72194227730493    4.42226634004618    1.04139437332801
H         7.65343225153047    3.36635098958427    2.66515809785814
H         7.73229444569138    3.69366872486207    5.10360688358607
H         8.71358065609211    2.29322919782899    4.67119218364694
H         9.49866980424150    3.81729352604607    5.07954384135308
H        10.70316606449513    8.56385024354164    2.37476323651697
H        10.42273490922104    8.04839603174847    0.71562253275450
H         9.56231917900129   10.80339424511516    1.72881799545188
H         9.62744965620657   10.23499909958554    0.05920163232443
H        12.12980747622391    9.92375596418986    0.34965025253089
H        11.54209426663500   11.58541570172724    0.35684030061402
H        13.21422285128853   11.28654607824107    2.12482958003678
H        11.64247273813561   11.61840620199136    2.84825042393846
H        12.29126702719260    9.97601172797991    2.84659781062173
H         7.60238438154425    9.44939026004005    0.26581340603789
H         7.67234981266817    7.75772371545890   -0.25412826916652
H         5.54919002448051    8.93009965495306    1.61248693901260
H         5.59649586607762    7.26695416036867    1.01521654728311
H         5.32207083119650    9.75024922701018   -0.72503924241852
H         5.40550050940892    8.08734477729298   -1.31243487402951
H         3.04815618636757    8.84578828698887   -1.17576544972253
H         3.34093455287909    7.52777456945045   -0.03909642677357
H         3.24292385351044    9.19019847587185    0.54369847130322
H         7.51838080685635   10.16365661380609    2.70189346173948
H         6.88291110021012    8.83940402484676    3.68507885762592
H         9.13804752184905    8.67129581644673    4.84228355942497
H         9.65691503165680   10.09630666410298    3.95210975383832
H         7.80329448252852   11.41040162274668    4.96283653921412
H         7.27376196769042    9.97845040226413    5.84601088670417
H         8.66254582052892   11.41969790221857    7.30311467486966
H         9.47883620354555    9.88135286738424    7.01120899890493
H         9.99678252096000   11.33040337824111    6.15201043990577

