28
CSD_code = BUXZUQ | q = 0 | S = 0 | Stoichiometry = C7H11NO8Zn | MND = 6
C         1.87824830668679   -0.64668994536662    8.83024600836932
C         1.28295261029488   -1.89431705569323    8.72630179652747
H         1.20855182283702   -2.50019735183388    9.61659505220570
C         0.80303841994411   -2.31100659342368    7.49255796835922
H         0.31891017759746   -3.26664482362557    7.35520952960395
C         0.95319844589118   -1.47020665128827    6.39643039429385
C         1.56488272315617   -0.24736989572313    6.59003722092852
H         1.68398708049738    0.39924690790831    5.72909457430505
C         2.41693994687928   -0.11843985814299   10.14927540151675
C         0.54901372278598   -1.84836496957991    4.88368908289583
N         2.01272983058300    0.17010493281487    7.77279850115762
O         2.95150430278379    1.05809196338650   10.08749570875279
O         2.32903049697386   -0.78712161987813   11.15591383305787
O        -0.10893212419178   -2.86936284239884    4.77795812323161
O         0.99719275276039   -1.03387532469883    4.07775501337349
Zn        2.95814341832704    1.75823574300097    8.35035580641387
O         4.98911311448675    0.93688807599787    7.94412683935803
H         5.44635394396024    0.92444507328977    8.79202203411043
H         4.99342514840139    0.03041156690581    7.61812421193554
O         3.95926093684382    3.46484245149659    9.13395992530341
H         3.37793774252661    4.23157050271057    9.10298701000356
H         4.02107050825965    3.20716876642709   10.06184070938204
O         3.15060916396957    2.72041257484539    6.46178195409356
H         2.92530284369311    2.16802402081971    5.70401067365825
H         4.05252899250308    3.02699194977783    6.32770534546556
O         1.12877570736511    2.98494712319118    8.71374551905458
H         0.68270779058698    2.62331421823373    9.48786145540898
H         0.49612217359421    2.96510106084722    7.98812030723447

