96
CSD_code = BUYBON | q = 0 | S = 0 | Stoichiometry = C44H39CuN6O2P2S2 | MND = 4
Cu        8.19146636794555   14.98029801626675    2.83752610534935
S        11.09211964731760   14.05371431249052    2.29084390880364
S         5.33415737111968   13.82402389211052    3.09658323652585
P         8.59605050509377   13.67474048510787    4.61464385588605
P         8.38651764353778   17.21887751258497    2.67974845615452
O         7.68429230760120   11.10292861021048    0.35992667766924
O         8.70586016579272   14.64528592203305   -0.36082471747929
N         9.29965041592241   12.38486756179646    1.29695259550753
H         8.60631753560718   13.10414972621925    1.54914680756904
N        11.49556607842561   11.74193432678363    1.12700563090355
N        11.17904421781795   10.59492443581097    0.52504533823292
N         7.12946374230979   14.36443185603020    1.23999353150482
N         4.96107901998334   13.93661917312192    0.52063368789055
N         5.23216194854963   14.19962737125555   -0.75996316810425
C        10.60126657310720   12.68162321021391    1.53663403046883
C         9.94829212578052   10.33052225407719    0.27320213278104
C         8.85294568161798   11.26744096662440    0.62053156562179
C         9.59042937948202    9.05593451983824   -0.39976942630139
H        10.47838713348501    8.45200135882130   -0.55635464265551
H         9.11224718549390    9.27132029104970   -1.35438579023769
H         8.86607667833115    8.51662244182978    0.20813896987058
C         5.85947721519284   14.05746205032068    1.53537735389281
C         6.44391612744767   14.49509449076242   -1.07283351646932
C         7.52539011630892   14.51822595341581   -0.06706681922126
C         6.78466208337948   14.81045719648223   -2.48488245970529
H         5.90025609177409   14.73453901760840   -3.11006724583219
H         7.55204420394834   14.12009620696052   -2.83189076635417
H         7.20272346316742   15.81531885387763   -2.53954483155417
C         9.97782039847852   14.09860490666679    5.72913606004227
C        10.79261964492367   15.17656891069646    5.41192651530940
H        10.62841264773946   15.70862140344991    4.48474007150440
C        11.81346448689808   15.55156047652124    6.26713937562170
H        12.44368155106940   16.39117072955164    6.01303825178158
C        12.02116166976892   14.85046119023283    7.44250610388625
H        12.81817460560947   15.13998727346945    8.11185645445596
C        11.20667664549150   13.77468448876698    7.76452105201408
H        11.37020148487061   13.22963197599978    8.68311385809320
C        10.18347023071966   13.39962583687439    6.91541994267441
H         9.54199545690466   12.56550700621298    7.16567806018565
C         7.24456556850624   13.73245633213197    5.83170376189472
C         6.71998964209053   14.99951511883502    6.06831746921428
H         7.11556412443620   15.84131040821615    5.51062917358372
C         5.69655014767911   15.17374075917222    6.97718499907822
H         5.28567255756498   16.15848988970440    7.14748280541573
C         5.18992728686167   14.07791343040149    7.65808115782476
H         4.38169860578344   14.20665707275244    8.36303766860348
C         5.71157952838367   12.81639026165547    7.42812117843738
H         5.31175497373614   11.96280321191582    7.95659306030547
C         6.73886622061550   12.63741226299818    6.51816120469664
H         7.13254343843237   11.64728180253825    6.33468521791766
C         8.84955130329519   11.90794300573223    4.28970249875014
C        10.11212380719035   11.32353436902042    4.33717533702139
H        10.95636483098203   11.89628523399026    4.69602400102683
C        10.28241959252669   10.01732713460309    3.91372112176899
H        11.26346765749574    9.56520357888708    3.94829300622186
C         9.20253909588369    9.29076783007710    3.43806884539639
H         9.34483065593355    8.27216536619253    3.10724391259826
C         7.94445867316782    9.87161443913196    3.38280745522840
H         7.10329399031407    9.31158899560898    3.00233642375812
C         7.76848859142831   11.17859298941259    3.79490890870179
H         6.79783346382925   11.65147322373342    3.72607183543707
C         9.64660935721914   18.21643589817070    3.54493733375310
C        10.63153440244788   18.96688921652627    2.91616118895731
H        10.67936518516406   19.00661755644335    1.83738313453814
C        11.54992400885854   19.67100601585704    3.67612019231081
H        12.31291829424931   20.25598158277976    3.18321196041038
C        11.49464163997442   19.63016076514337    5.05899178692315
H        12.21598244379654   20.18056806197467    5.64493412911051
C        10.51368378883002   18.88129975074030    5.69056482316419
H        10.46786638772187   18.84365842104280    6.76910094415371
C         9.59693044574074   18.17566906120556    4.93738077624688
H         8.83290687246314   17.58206068293343    5.42371261643176
C         6.88783358323638   18.14830146125750    3.13476646812486
C         5.73402151959856   17.43883451704388    3.44684967170993
H         5.74398065307919   16.35674844406149    3.41632595570746
C         4.57892578653959   18.11409065261599    3.80077536500401
H         3.68733215735489   17.55543039758437    4.04388411990323
C         4.57365238216936   19.49783175021967    3.84539492262775
H         3.67355324067800   20.02652179024020    4.12320810937541
C         5.72382257496942   20.20872164035995    3.53544059046004
H         5.71724661495242   21.28862458885908    3.57044823243616
C         6.88043205222782   19.54027527440332    3.18240467141122
H         7.78005727008275   20.09043198865038    2.94142737465124
C         8.62504775096758   17.61818310591289    0.92593748318251
C         9.80402958219869   17.16603361275488    0.33381414037902
H        10.53998026778703   16.65245847674034    0.93865013320746
C        10.01047999899362   17.34651506777131   -1.01915057022902
H        10.92311668888394   16.99417205027902   -1.47544807120709
C         9.03338070772045   17.95190188655814   -1.79387455228623
H         9.18992931393835   18.08236876611893   -2.85520113127726
C         7.84721459877612   18.37107442189098   -1.21452917600628
H         7.07673231538626   18.82410062644318   -1.82273147310416
C         7.63671089720686   18.20289714884188    0.14302648783366
H         6.70379448672171   18.51829551017972    0.59068485689159
H        12.48234787043045   11.91155344568331    1.27807697823384
H         4.00749125145567   13.67421342706307    0.73544324808318

