53
CSD_code = BUYCIJ | q = 1 | S = 0 | Stoichiometry = C21H27ClN3Pd(1+) | MND = 4
Pd        7.35426043445562    5.19036569935142   12.42505577657521
Cl        7.32601714843438    2.98398892778188   12.83477832262573
N         7.28912148157941    5.45162728596619   14.50930057458151
N         7.17336444602696    7.32803403373291   12.00660529088830
N         6.91046388478243    4.63205985395574   10.43635701591811
C         8.50649915444543    5.07093833092733   15.25420905690722
H         8.40679396882025    5.33681365944488   16.31277755719409
H         8.62762131619140    3.98747249100495   15.17080072798066
C         9.69914949288737    5.76064426341328   14.64597766083181
C        10.30136656328328    5.20460310059231   13.51948118380217
H         9.94132522404112    4.25247675455142   13.13090262298022
C        11.41503417631024    5.81364942641839   12.95929693181278
H        11.90798650264304    5.36244392297145   12.11130082541922
C        11.90973264715136    6.99021085339381   13.49911069321841
H        12.78050636338170    7.45810496468368   13.06632028824675
C        11.30105644680820    7.55472292030893   14.60772974975030
H        11.69088642028758    8.46578078579952   15.03422101240334
C        10.20250340100403    6.93880177110566   15.18307259092696
H         9.74976381568657    7.36588335187527   16.06638481167673
C         8.09546641881170    8.27575749242659   12.66991559622072
H         7.93483571119320    8.23909164752011   13.74974173738071
H         9.11767586135420    7.94811908644523   12.46203722828632
C         7.87977614074027    9.68403596925451   12.17068183369909
C         8.19106648563579   10.00500144448132   10.85370122514423
H         8.62361300564137    9.25561592963093   10.20448822260682
C         7.96784448769070   11.28292016446313   10.37438859298522
H         8.21678861621058   11.52282535623262    9.35224663802202
C         7.43055420975142   12.25215574532411   11.20553521179308
H         7.25939130660598   13.24948645550392   10.83206823972698
C         7.11792929014248   11.93939315516289   12.51711233126620
H         6.70204492569398   12.69158024690839   13.16924532597274
C         7.33753600346034   10.65903656310638   12.99634444612293
H         7.09445385005468   10.42154768521774   14.02227585830433
C         8.00222083550999    4.28081112147630    9.50629139957278
H         8.64130467049279    3.54681347570660   10.01060779050423
H         7.59503401882527    3.82334283047810    8.59680393475582
C         8.80580838663670    5.50308613648579    9.15372516030398
C         9.53958846477587    6.12764578595763   10.15613406485318
H         9.52557425228849    5.70155259976766   11.16117617122743
C        10.30407328987462    7.24557506145173    9.87097516011820
H        10.89080649011983    7.71270806702938   10.64830742925733
C        10.33066162446347    7.75289028642028    8.58034387793491
H        10.93189492905133    8.61966200113413    8.35389410350366
C         9.59071574556178    7.14208306578955    7.58200974127645
H         9.61223851121390    7.53409276178586    6.57747186948308
C         8.82933791549537    6.01969111021694    7.86591617473311
H         8.26667845411921    5.53848550656974    7.07983027396319
H         6.52740519603196    4.81649953790556   14.77383402698149
H         7.01670501549935    6.40064297955619   14.77473067937929
H         7.31998029095127    7.43226582153486   10.99960871477659
H         6.21326981529500    7.63030542279615   12.19363683609763
H         6.26369740183768    5.27197547921909    9.96541241141322
H         6.39327549075153    3.77158160975580   10.65822499857393

