55
CSD_code = BUYCAZ | q = 0 | S = 0 | Stoichiometry = C12H36Cl2MoP4 | MND = 6
Mo        4.83740375296457    4.83743044816397    6.15551402441506
P         3.16832472471955    3.16832105854380    5.74123737604562
Cl        4.83765832591982    4.83766387006348    3.69645927333633
C         2.28527383281127    2.28527320558279    7.08317807451246
C         1.76210303152995    3.69283828438839    4.68937571102583
H         1.57173548161446    1.57173531950881    6.66913923862519
H         3.01004513090790    1.76503134863071    7.70674428158205
H         2.18207126114889    4.11204650564879    3.77399553459278
H         1.16281160060410    4.45246158766437    5.18627200363901
H         1.13133273691517    2.83637596634317    4.44649288107031
P         6.50664164787270    3.16844796392394    6.56971696003553
P         6.50648909891809    6.50648542833073    5.74130893474217
P         3.16844621228759    6.50664339808772    6.56971578206579
Cl        4.83752280203925    4.83751783455634    8.61464504477035
C         3.69283898605800    1.76210012276604    4.68937413695661
H         1.76503233535133    3.01004619980817    7.70674369755996
C         7.38973169516833    2.28529780387602    5.22783758213546
C         5.98219760847294    1.76218743499475    7.62157794342405
C         7.91288535147348    3.69281907829653    7.62162009104650
C         7.38969614824078    7.38969550251255    7.08311259621828
C         7.91278649013519    5.98221324732839    4.68943975622172
C         5.98221395422719    7.91278356029943    4.68944131646939
C         2.28529650744525    7.38973299420079    5.22783615438584
C         3.69281955835650    7.91288563092479    7.62161990884180
C         1.76218716172653    5.98219712365277    7.62157777404315
H         4.11204715725818    2.18206906405612    3.77399433002684
H         4.45246220483763    1.16280814257563    5.18627001164507
H         2.83637589679923    1.13133061116151    4.44649097719476
H         8.10321702538504    1.57178452519881    5.64191996072692
H         7.91002740863914    3.00999973354741    4.60429273330442
H         6.66498406191889    1.76503147499710    4.60429045209280
H         5.56296897219831    2.18212427866246    8.53696962465074
H         5.22258856416137    1.16286260112553    7.12467800490050
H         6.83869251764305    1.13141793409587    7.86445402689067
H         7.49293228717969    4.11204467203941    8.53700400552081
H         8.51223385666685    4.45242565415781    7.12473688718397
H         8.54363248768392    2.83629986838567    7.86450322424039
H         8.10313747677284    8.10313732613715    6.66895072518098
H         6.66504656401410    7.91003771261816    7.70663802105099
H         7.91003874706210    6.66504767635303    7.70663859697255
H         7.49288040442794    5.56297376431152    3.77403420806861
H         8.51218116977152    5.22262863169111    5.18631540716408
H         8.54353012163911    6.83878384524185    4.44657191403662
H         5.56297440958519    7.49287818458045    3.77403539732259
H         5.22262925541678    8.51217769834969    5.18631738899470
H         6.83878377535258    8.54352797169486    4.44657379674293
H         1.57178314511775    8.10321838261409    5.64191850805538
H         1.76503045898036    6.66498495737683    4.60428903288491
H         3.00999880472156    7.91002845259122    4.60429133473328
H         4.11204513355638    7.49293148811698    8.53700325403977
H         4.45242626219175    8.51223388075113    7.12473676301256
H         2.83630107819667    8.54363277453646    7.86450387742873
H         2.18212508238132    5.56296850701237    8.53696888499403
H         1.16286258056284    5.22258795876921    7.12467788626343
H         1.13141765297199    6.83869130915761    7.86445468691513

