60
CSD_code = BUYCUT | q = 1 | S = 0 | Stoichiometry = C21H28MoN7O3(1+) | MND = 6
Mo        2.66682568767651    2.10631982614772    3.29389910671039
O         4.46173594660060   -0.14427088636683    2.83807682267787
O         1.49602999713401    3.83455384413482    3.74140898203867
O         4.00814052123013    3.34477184741859    3.68879170458617
N         3.71936481418829    0.76495379447014    3.00449382593135
N         2.39854144104971    1.61694175692330    5.33564152122040
N         2.61550152017880    2.59155764797734    6.24057215411142
N         0.83141566443067    1.16474594776604    2.93791565500845
N        -0.23326275839692    1.66497304117570    3.60171408327102
N         2.52952188562089    2.76308912671162    1.29941871795755
N         1.56639102071583    3.65649008750773    0.98470558742859
C         2.70883075415874    3.00572275149384    8.68579646525516
C         2.50198705650703    2.13958829159538    7.50348266936601
C         2.16030049923661    0.80316922497069    7.40127942641466
C         2.11207667243769    0.51460442372636    6.03341718396031
C         1.82463819398909   -0.78490182397247    5.37518536406368
C        -2.68174413952904    1.35271071847628    3.89464955253122
C        -1.36996245758118    1.01427206174523    3.29778113487245
C        -1.01721919889183    0.03691700301808    2.38185817477875
C         0.36028848208713    0.16696213452274    2.18007143168527
C         1.23604032628374   -0.62069573208498    1.27914022615576
C         0.76067177942470    5.08360636373994   -0.87937299770371
C         1.67823429334106    4.08518218797238   -0.28560508201682
C         2.76138491579351    3.41276815560385   -0.82266537947234
C         3.27174862949200    2.60500321837821    0.19976192422911
C         4.45954119923227    1.72214665459295    0.16475355198376
C         2.27826398783454    4.85998851905942    4.00026155268914
C         1.83382381029443    6.14716340976483    4.30836478820915
C         2.76096789650897    7.13677491691823    4.57586407565682
C         4.12772386577240    6.87603401462943    4.54823623457750
C         4.59607751990894    5.61156499284308    4.25019544645440
C         3.67833103497300    4.59543921028509    3.97277038826755
H         2.91583543621531    3.51770994056223    5.95169185446034
H        -0.11382875872946    2.48908650597424    4.18206204690050
H         0.96353982629419    4.01099868798130    1.72262184964610
H         3.24350374081873    2.46004136791444    9.45914491716932
H         3.27509271102335    3.89516274514830    8.42048078584917
H         1.75050411559131    3.31660811294817    9.10185896133374
H         1.98231878885545    0.12126838132242    8.20611196923408
H         1.93674738543706   -1.59180307481023    6.09380263395385
H         0.80603712665416   -0.81432846748744    4.98566250242465
H         2.51764300602763   -0.94314149066921    4.54914573897952
H        -3.06844016929313    0.50628514702255    4.46008880886311
H        -2.59790326574825    2.20967557928842    4.55782380961166
H        -3.40445114061265    1.57898488735188    3.11264014403498
H        -1.66971134204561   -0.67430541103416    1.91999242150434
H         2.21968683912402   -0.75287918909065    1.72531445072522
H         0.79278729223333   -1.59269641965204    1.08168342695893
H         1.35890318932466   -0.10337323831203    0.32655225980288
H        -0.26079932740311    4.70516774105590   -0.89819998146592
H         0.76898482451822    6.00444421804328   -0.29756900400280
H         1.06644701334594    5.30967538996819   -1.89608610072507
H         3.14322176027453    3.50301114846048   -1.81814464480722
H         5.10368542526872    1.93181710725685    1.01982556689057
H         4.17094557472496    0.67339452134850    0.21967464033305
H         5.01666832194991    1.88257634780686   -0.75354818895208
H         0.77383008583406    6.35512122601022    4.33222167449884
H         2.41473439799178    8.13173160984232    4.81007913019639
H         4.82707744279134    7.66897560887211    4.75940369928251
H         5.65232883783545    5.38884428574005    4.22020033439548

