64
CSD_code = BUYMOY | q = 0 | S = 0 | Stoichiometry = C26H28BrMoN3O4S | MND = 6
Mo        5.65568656012675    2.34491744075548    1.89233818042685
Br        7.22551876195881    1.90177516366656    9.03240206643694
S         1.34754557452341    3.57225363337627    0.95867136901848
O         6.26315226400862    3.80383000101003    2.35096339879126
O         4.29671493098297    0.14776184374472    1.37302072939084
O         6.32493695016552    1.14734651432895    3.15692724964697
O         6.31006844817792    1.64484305119649    0.55211056413948
N         4.10389487039453    2.45864319897304    3.38175668890077
N         3.97838945435723    2.90077103125215    0.92573354635666
N         2.88193470608589    2.83536547264103    2.93901202303216
C         6.50732391123780    1.33105175477291    4.44404685021518
C         3.10341245295437    2.63137673749812    5.57463465497568
C         4.24304047715338    2.34278316727958    4.67485158799970
C         2.86957959657506    3.04211543496735    1.64949909565605
C         5.73923948292112    2.08037735646387    6.62110206966523
C         3.98023641503974    3.08702033033641   -0.46714746349362
C         4.95914699459412    3.91618101568224   -1.01412260296449
C         2.62891891570924    1.64492182324777    6.43574653599002
C         0.91915380318663    3.13613275615473    7.21458096495965
C         7.91974089084267    1.07120029585071    6.39339125546600
C         7.70182414028525    0.90444947774795    5.04447727477978
C         2.47881827965588    3.87415741640294    5.54658206382506
C         5.49918879326378    1.91849384893729    5.25044312023447
C         3.06588007641889    2.44746596076994   -1.30041172256464
C         6.93031553690616    1.66364669451864    7.17001566475884
C         1.53831744762894    1.89782093064539    7.24779420583566
C         4.18171355175586   -1.06877482437914    2.10136269922242
C         1.39454213655614    4.12375806491966    6.36722568146630
C         5.01087875399376    4.10694350807755   -2.38157605646508
C         3.12629862780171    2.65097880046819   -2.66812921386819
C         4.09209262516589    3.48035652336491   -3.21060089375815
C         3.12937751840367   -0.88644925129727    3.19158414222589
C         0.42968730238841    3.98803763140904    2.47116065952560
C         1.76743440259719   -0.52645276795425    2.59869731074049
C        -0.58772164015780    0.24487622427271    3.05892786721105
C         0.78406874239078   -0.03910365375103    3.65888397622117
H         4.99202831109540    2.55029374856010    7.24263008304505
H         8.84669642985146    0.75263072328570    6.84481196901489
H         8.45437638788003    0.45876908196310    4.40957839013977
H         2.86056358446136    4.64185032229556    4.89107302768839
H         0.91792395911349    5.09245082598503    6.34615306102106
H         0.06894049303000    3.33202673414589    7.85043348085547
H         1.17285170133969    1.12600027296606    7.90835556431859
H         3.10870415919230    0.67680550035579    6.45709315703223
H         4.99418562475668    0.06443100597168    0.70290129196365
H         3.87255957790391   -1.86843559750784    1.41369560451378
H         5.14820408154120   -1.33720831330921    2.55021671677144
H         3.06041321481620   -1.80481197330787    3.77791430233253
H         3.45832534759088   -0.08360177632967    3.85576352699413
H         1.90968559349944    0.26450713834116    1.85904533744964
H         1.35401210268436   -1.39737575898550    2.08445925009374
H         0.68920480331336   -0.79228966036908    4.44495476226627
H         1.17857075570672    0.87125052126994    4.11700385048696
H        -0.50721847194035    0.96551878378404    2.24826684759866
H        -1.02577841704705   -0.66734322689868    2.65972841516555
H        -1.26060602445890    0.64613305949202    3.81327863161896
H         0.87512557464828    4.86561571796530    2.92652018564119
H        -0.58808871134614    4.19737463090807    2.15872017845373
H         0.46542142916663    3.14800206533863    3.15431701427495
H         5.67065310145851    4.39095501214681   -0.34385757712137
H         5.77022357227547    4.74718411379654   -2.80441635894203
H         4.13601291076341    3.63247842225018   -4.27840609674186
H         2.41802769948255    2.15041513792250   -3.31121226869151
H         2.33082945319613    1.77640088059048   -0.87997789123545

