95
CSD_code = BUYMUF | q = 0 | S = 0 | Stoichiometry = C38H53FeN3 | MND = 3
Fe        2.33401311081690   12.85289921867730    5.24926358896891
N         2.27564241926528   11.73309585783209    4.12674386877995
N         2.02078689965724   13.92483752446384    6.37891082694707
N         5.85430250234065   13.12161001544123    4.99419711207942
C         4.85344392541754   12.81366705899378    5.76392968735660
C         5.39078382437001   12.68219254854929    7.17866511854294
C         6.92474936142841   12.85254574982672    7.05308410088758
H         7.32525485134734   13.48044458481454    7.84601687503120
H         7.41916695859363   11.88107015792521    7.10818156354992
C         7.13953004294978   13.48003772674826    5.67219482902050
C         8.38515373995270   12.97329454940008    4.95244142044710
H         8.37839434757327   13.28072465045301    3.90853776199569
H         8.47495113214988   11.89295939766909    4.99679103536915
H         9.26515074971563   13.40067756048579    5.42887357026159
C         7.23998662511884   15.00628452684941    5.76466915613123
H         6.35666656021753   15.43221960877893    6.23303291556182
H         7.35948297161336   15.43992853303787    4.77546436539935
H         8.10717018039979   15.27865013639857    6.36267227634586
C         4.79030565012100   13.70659296032229    8.14037874330830
H         5.18482634133216   13.54957009055194    9.14285688192036
H         3.71131130614335   13.59887816186149    8.17083107790600
H         5.02014032214298   14.72436964788107    7.83594690092976
C         4.99742164667722   11.27775187584377    7.65039302042632
H         5.32490338680813   11.11393344062597    8.67520346329415
H         5.43915760572331   10.51416099446363    7.01320881364730
H         3.91322051993776   11.17854901807728    7.59603797588775
C         5.79236094936469   13.05156272522354    3.56954537949023
C         6.15083202779156   11.83852117757478    2.96177874517517
C         6.17448754526318   11.76930671616429    1.57631560404334
H         6.43716363145110   10.84262520945894    1.09252392209247
C         5.85937544238014   12.87011853211083    0.80374912393559
H         5.90169441180512   12.80636757858182   -0.27331810002963
C         5.44848104787513   14.03792727581517    1.41313922969237
H         5.15425358436734   14.87744853250886    0.80265773714437
C         5.38727729370649   14.14408739629500    2.79839875596608
C         4.80503686225953   15.39696833786601    3.40686152950427
H         4.91877533048094   15.34827744937193    4.49096603076524
C         3.30365867560397   15.44651882977958    3.10572026274096
H         3.11882268314497   15.38722865429319    2.03588546569562
H         2.87928188053789   16.37429815633013    3.48115023523152
H         2.79459337004832   14.60110980845119    3.60104915042888
C         5.49015032430251   16.66752705330729    2.89570942350833
H         6.57296037331926   16.58986532683458    2.97131389882419
H         5.16555386927001   17.52406164560836    3.48223296525623
H         5.23775251615760   16.85722579232031    1.85575134366643
C         6.43057933620588   10.59268521361006    3.77092320257519
H         6.64646127295028   10.87567519624695    4.80290826010054
C         7.61610996074984    9.78666969016212    3.23462214535602
H         7.35496816024233    9.27065585832879    2.31478892531155
H         7.90852284943895    9.03329420644934    3.96359718535470
H         8.47265721880697   10.42865086240100    3.03823792267722
C         5.16471525605817    9.73502143586550    3.80542160637851
H         4.36826649452908   10.28942632730166    4.29473477694549
H         5.34776437279096    8.81510662084634    4.35732821510532
H         4.83836393823124    9.47740115170711    2.80069102885949
C         2.04072226111726   10.67765561544316    3.33225661141091
C         1.77786660911982    9.40197937119828    3.89139328287937
C         1.55114265894136    8.32750380879536    3.05483053466212
H         1.35458543576612    7.35735037289183    3.49233952731182
C         1.56970343676209    8.45467158466536    1.67118037893276
C         1.80534341072848    9.71176357784617    1.12916862340070
H         1.80806964190115    9.83236284821377    0.05352225848833
C         2.03374695920325   10.81625650742883    1.92469477260405
C         2.26024736538279   12.17324511113560    1.33432996859878
H         2.19418351459726   12.14280309695911    0.24915269109652
H         3.24165683399966   12.54748180974467    1.62294841903354
H         1.51649399017599   12.87398745435767    1.71858881265387
C         1.31224480503482    7.26535149258810    0.79430091690933
H         1.60356842648441    7.47003179588576   -0.23341999279508
H         0.25146686398183    7.01081482815944    0.80344486339478
H         1.86504702077781    6.39699847877322    1.14977405193526
C         1.75613435386686    9.22542241621705    5.38103801029957
H         0.94885440328150    8.55856466234456    5.67828190925747
H         1.62468915067630   10.19833771130458    5.87147664981691
H         2.69706709093862    8.79806630047070    5.72957612285628
C         1.58043047931691   14.63513417471034    7.43014098982621
C         1.87807225055908   16.00832301049734    7.58870274356641
C         1.39906539493620   16.68911283155611    8.69000257202684
H         1.63635743985048   17.73953568825837    8.79858745836605
C         0.62192247894204   16.06662559011888    9.65883842643192
C         0.33211572077030   14.71705978334246    9.50205828403287
H        -0.27162591032419   14.21581416377573   10.24732325156674
C         0.79443733902165   13.99376853574882    8.42134114433251
C         0.48604249913401   12.53484440077235    8.27269130310729
H        -0.36580760716812   12.25007318363873    8.88546059258767
H         1.34714613709087   11.93335096607600    8.57348079399154
H         0.27442572204886   12.30115680260737    7.22162742771779
C         0.13225222905736   16.82964553301424   10.85331289590632
H        -0.73383574134558   16.34295978598988   11.29614735048990
H        -0.13871055937325   17.84720786136227   10.57785498135868
H         0.91428699721673   16.88564408086556   11.61249852554272
C         2.70001248904674   16.70987673328266    6.54993412752547
H         3.24893251987212   17.54329777841939    6.98461689777337
H         2.05382688892513   17.09925453666686    5.76133973436815
H         3.39548134123476   16.00708737184421    6.09435115868751

