61
CSD_code = BUYQIW | q = 0 | S = 0 | Stoichiometry = C28H28NPRuS2 | MND = 8
Ru        7.83644607114075   12.79230734556889    6.36496832672874
S         9.05480416352818   10.66771867108722    6.53112755592462
S         9.49760877823594   12.99190116207729    8.16904973164037
P         6.29831836196138   12.02515494800245    7.80764316659179
N        10.70239895387130   10.66022339806493    8.60631213918404
C         9.85991472481819   11.35921411153918    7.85974489720955
C        10.95328578577301    9.24755700156497    8.40360881618714
H        11.24807680238760    9.06201387838254    7.36804275524487
H        10.03352230926220    8.68397164841773    8.60105978857212
C        12.04886905220900    8.92646169997653    9.41532116039624
H        13.02968140741566    9.12158587056797    8.98058989008229
H        12.01236015401305    7.89060410204507    9.74421573036831
C        11.77046073504406    9.91707112670145   10.54537806205485
H        12.63583787986521   10.08558983474767   11.18218546180583
H        10.94383999090321    9.55713163126411   11.15781055812247
C        11.34985384295935   11.17593519377758    9.79382690942898
H        10.65688446461145   11.81161391097144   10.34930235518242
H        12.21616158992023   11.78329351857074    9.50706447603637
C         7.88341406955118   14.85336342317236    5.49097041245580
H         8.09524477091332   15.79100286829619    5.98910526456605
C         8.84287888648527   14.03645624727701    4.82447392918015
H         9.89404093580999   14.26666286258816    4.71101063971853
C         8.14236819209047   13.00725476991858    4.15592239853282
H         8.58141389842734   12.27071320678573    3.49514507694597
C         6.75958488313904   13.15055340566681    4.42671950506520
H         5.95567959234662   12.60150714892824    3.95431775998890
C         6.60097594717993   14.31109347767909    5.24670643984959
H         5.65281809303385   14.76080933353799    5.51666549765739
C         4.87810401730473   11.28099608131523    6.94215692575083
C         5.20224774169742   10.39592021530038    5.91408230490961
H         6.24858830871713   10.19676711226495    5.70526209462231
C         4.20728712507429    9.80149828392793    5.16290050521802
H         4.46489775035176    9.10993621302808    4.37356711409298
C         2.87793321913316   10.10498682979327    5.41516956199785
H         2.09737261152360    9.64790469026542    4.82450221167961
C         2.55263379896076   11.00651921965559    6.41397931804195
H         1.51768771461218   11.25669313181299    6.59884899802292
C         3.54623110975067   11.59600653826630    7.17783903237291
H         3.28291851759029   12.30644691760063    7.94814962311941
C         5.53460568104896   13.17500755464261    8.99544132763034
C         5.84111225644712   14.52524876007483    8.89490811452276
H         6.53253135860243   14.84341700893908    8.12237901699561
C         5.28898382677159   15.43298495070480    9.78145074957772
H         5.53123933498286   16.48293297166416    9.70332787003031
C         4.42980623773825   14.99129849736605   10.77360029845034
H         3.99702045063129   15.69732723295333   11.46740048008735
C         4.13098876020848   13.64155941928816   10.88643359546993
H         3.46794727429174   13.29925990233754   11.66816279063477
C         4.68279701896026   12.73183874891578   10.00445892165535
H         4.46564222231756   11.67553300822371   10.09607991746316
C         6.81204469621720   10.70710771816705    8.97019914196448
C         7.52099629632931   11.11111300218234   10.10114212585985
H         7.64760889454062   12.16882826090747   10.29582755669430
C         8.05663692826498   10.17229756249599   10.96174318364444
H         8.59379568047317   10.49546630165681   11.84265663493154
C         7.90311333499186    8.82071867010545   10.69609356708304
H         8.32632758000276    8.08473239246491   11.36514410427735
C         7.20337279969820    8.41415245448755    9.57208914055434
H         7.08202555184583    7.36076302293505    9.36329565435119
C         6.66041833708386    9.35026046806419    8.70929061508784
H         6.11773922694609    9.02631106104656    7.83312879849875

