53
CSD_code = BUYVEX | q = 0 | S = 0 | Stoichiometry = C20H30OPRh | MND = 6
Rh       -0.02849657303619    2.34661054501959    3.13358178983922
P        -0.61159542088088    4.00847814372073    4.56874316605864
O        -0.01003036565421    3.87574858200357    1.81865395945986
C        -0.81377591479671    5.41139257496113    3.44265925096754
C        -0.39729596964509    5.07713510302382    2.13241919804329
C        -0.42651120337140    6.09651330485381    1.16148262429276
H        -0.09765404796501    5.86103744263843    0.16002254149823
C        -0.88027443714350    7.35545947477071    1.48193820349230
H        -0.90141105211151    8.12167003553966    0.71929592753854
C        -1.32290548794995    7.65570940794704    2.76493796786020
H        -1.69196880260701    8.64394342975398    2.99594596398809
C        -1.28664874566346    6.68068398982194    3.74366855543855
H        -1.63877944454751    6.91092583974802    4.74011783941047
C        -2.12149586262502    4.08247225768710    5.65487550028324
H        -2.25741466339636    5.11746905383165    5.98765584331544
C        -1.99921881525919    3.17409591627874    6.87227888468740
H        -1.20424209369822    3.50842863886351    7.53541153698773
H        -1.78443118620050    2.15151934163627    6.56856338194299
H        -2.93219226883833    3.17322310740441    7.43491133317408
C        -3.29869467083683    3.68338735321861    4.76845684047314
H        -3.40044355223524    4.38483563936376    3.94112759525388
H        -4.22964360610913    3.67380520863042    5.33344297904105
H        -3.13269023781616    2.68974855658941    4.34925879687821
C         0.82008474168563    4.50707461568764    5.66405913975630
H         0.92945446110680    3.70542564951434    6.40579777838366
C         0.65001350655866    5.83820030419400    6.38388287394135
H        -0.22090396648265    5.83274511395260    7.03582939379773
H         0.54594471014616    6.64710190157020    5.66425460443780
H         1.52863856782613    6.04000812190788    6.99596820462770
C         2.05676476529106    4.52164963877815    4.76661882995742
H         2.11983090949501    3.58918871180221    4.19256275319167
H         2.96633645872572    4.63731427021536    5.35434213662950
H         1.99310713009791    5.34728574304849    4.05873081546825
C         0.64757608933360    0.91884232254975    4.53208653712099
H         0.76689186178965    1.35745133617754    5.52388487071275
C        -0.64497154147972    0.57258441475405    4.13482865635699
H        -1.45413668734345    0.79627654910532    4.82884189162842
C        -0.94941953812500   -0.58045370966305    3.19946203677619
H        -1.90440369369453   -1.02692741161429    3.48508760296463
H        -0.18743556730597   -1.35131971468892    3.32274666101610
C        -1.03543417405749   -0.13373996348822    1.72751959375312
H        -0.79023202014936   -0.97204735339085    1.06613275382937
H        -2.06402341071169    0.16255167702571    1.50705823873240
C        -0.13526549736452    1.03527517477072    1.40806772071645
H        -0.48595682040402    1.66236299720409    0.58991855649653
C         1.18695899704336    1.14279484372770    1.77994494923152
H         1.80043481022542    1.87247295679191    1.25261111553752
C         1.94893174253848    0.05860977076251    2.50741587503771
H         1.54045027677812   -0.91347701187096    2.22857330998188
H         2.99093695312887    0.07573987479923    2.18142059787191
C         1.90710799664807    0.24149308442985    4.03754862395300
H         2.76015982439941    0.85264488405823    4.34453374981782
H         2.01467353658129   -0.73012173943802    4.53332044843073

