55
CSD_code = BUYZOL | q = 0 | S = 0 | Stoichiometry = C24H18CdN4O8 | MND = 8
C        -2.16545938358184    9.05607638345320    4.43869425580731
C        -0.10840257527524   13.49141592281024    6.34774526495622
C        -3.22133060001106    9.06277591645030    5.49757994589126
C         3.15073530134843   15.28158897742558    5.95984850415585
H         3.86469327599118   15.49180098003099    5.17776263321688
C        -0.21320548694271   10.02334258372430    3.74018661563378
H         0.56542831924948   10.74032612871159    3.95708140341104
C        -2.95074679835098   15.02262281742058    8.32398083302816
H        -3.26732327130484   15.96262633480815    8.75162902611638
C        -1.36970211493612   13.69893201371747    7.12373154517337
C        -2.23105350011853    8.24904531132164    3.30780306018246
H        -3.06074702719173    7.57398313545692    3.16531357932230
C         1.07319403199518   14.30280925057027    6.67880520582890
C        -1.74297647436816   14.93144282386188    7.64912192301401
H        -1.10806507110697   15.79470434196973    7.52234985739346
C        -3.73609408378476   13.88838071003754    8.44145883410261
H        -4.67542590542023   13.91585217510161    8.97071003191027
C        -3.29301529196974   12.70469267780711    7.86364155293671
H        -3.87156617069445   11.79410413214347    7.92329907253316
C         2.00347669225320   14.57028379445820    5.67312880304623
H         1.80286153236861   14.21563244397254    4.67311458161734
C        -1.21492690039442    8.34433542920467    2.36928033780414
H        -1.23044261842937    7.72640558167370    1.48349707891569
C        -3.95755379291996    7.81967686997216    5.77517531353700
C        -4.05412266716500    5.43003047591245    5.99658861068994
H        -3.57783025893299    4.46411326872216    5.92210670448403
C        -5.26323940410579    7.90926681424088    6.26025233058151
H        -5.70972013560711    8.88617156483116    6.37135190041136
C        -3.35075237558346    6.56904115431727    5.65513577449742
H        -2.31669443121020    6.50289049565392    5.35394341148943
C        -0.18322700225690    9.24037659616821    2.59242308861869
H         0.63209270287105    9.33381584307997    1.89262437237100
C        -5.96463932034623    6.76488120309605    6.58111246222726
H        -6.97680310082039    6.83807058193259    6.94954186297632
C         1.32893130375854   14.72356083954375    7.98429365421626
H         0.64940718963901   14.45127699268945    8.77706493589668
C         2.48890962258986   15.41923814415721    8.26564011435473
H         2.69579077595640   15.72765168484469    9.27929852847288
C         3.39384865965671   15.70789311363192    7.25626413336568
H         4.29893009973836   16.25128075732638    7.48370632798327
C        -5.36110285909738    5.52407054824861    6.44828026167477
H        -5.90476081392411    4.62954762238928    6.71368308235939
Cd       -1.05511254293697   10.68755352564895    6.76287499407257
N        -1.18447437063663    9.93802328154676    4.63114294097833
N         1.32254224154427   11.22602181340778    7.35602448235590
N        -2.14586824127637   12.61883852749157    7.21469725606146
N        -2.03594844272021    8.79888534970082    8.09048069214714
O        -3.46624993242493   10.11056973321960    6.07952333848399
O        -2.04110327648918    9.95647103500922    8.52116253476237
O        -0.10460390738739   12.67463689280283    5.43695654110108
O        -1.32945763766383    8.53923242410724    7.10046753262320
O        -2.70798362286895    7.94053300512150    8.59988712282475
O         1.04939977952521   10.33728726350573    6.54296825427807
O         0.40478136812008   11.69076611197917    8.05486198638542
O         2.44360851359224   11.64964659954223    7.46430150769966

