85
CSD_code = BUZCOP | q = 0 | S = 0 | Stoichiometry = C36H39Cl3CoN3O3 | MND = 6
Co        1.62670448382765    5.54359668304119    9.93268016083413
Cl        4.06761890286029    9.16680862930123   15.65087523145201
Cl       -0.14705434175837   -0.06693875749850    5.88553454059203
Cl        4.66195717901250   10.26729807891921    5.56998113920570
N         0.87380817487437    5.34606958262388   11.70418616723771
O         3.12034084103094    6.51958771100714   10.55026234571791
N         2.50294768163103    3.83298540304754   10.14263332376798
O         2.49600447028530    5.57404235221319    8.25900345263386
O         0.12210801416784    4.79694141845853    9.08483753840276
N         0.80764306269063    7.25909948311084    9.62430994748864
C         0.11261723762590    3.71575840274141    8.39659501992973
C         3.27043349893021    7.10189943669785   11.67693142603954
C         2.45327359678867    6.83292602325248   12.81657699034339
C         1.37015156110309    5.91491042387227   12.75332974430594
H         0.91753960439445    5.69524219425963   13.72163293914169
C        -0.23587212109204    4.42832114369696   11.94306178503974
H        -0.64459336000179    4.17728763716712   10.96511703980348
C         1.13745585628501    2.72668570783379    8.46122606781185
C         2.25368256741038    2.86289791320294    9.33241100043106
H         2.94208090014024    2.01732507964981    9.30674102406983
C         2.93994299747989    6.63068472723641    7.69614366309521
C         1.03959251881228    1.56798002315335    7.67149254686283
H         1.82533462729786    0.82810151260610    7.71666346142422
C         2.72536781723422    7.47432448432455   14.03894929045922
H         2.10623494856615    7.26111228219377   14.89816357112810
C         3.95518073637378    6.51714369256564    6.70810149007657
H         4.31874547740789    5.52701593900017    6.47993888762373
C        -0.99341933897258    3.45131133857180    7.54640351933948
H        -1.77533503967825    4.19395160041208    7.50429280149630
C         4.32864584188593    8.03697227616158   11.84094890272627
H         4.94266261508653    8.24124892809460   10.97743333970065
C         3.98887210432758    8.88905893832173    6.37795596511725
C        -1.06839351634077    2.31428645276393    6.78962772298462
H        -1.91315464605665    2.14109878043730    6.14064010731767
C         4.56221055161203    8.65907704581944   13.03522909918306
H         5.36707101211548    9.37092288476103   13.13538492955645
C         3.79608143287693    2.41152460957071   11.78286039893627
H         3.52072937321924    2.57827752663672   12.82351526475440
H         3.12250302290043    1.65382299404810   11.38189263830324
C         2.44478395978009    7.94167291562006    7.96721521414632
C        -0.42216708101026    7.64645457193550   10.29816036233416
H        -0.82298620039465    6.74034600034172   10.74875712690516
C         2.98437748020396    9.05145290175865    7.29550143130839
H         2.60551529576294   10.03915003024169    7.51439911004635
C         1.34130956398718    8.13270498834245    8.84141127475560
H         0.89151447466437    9.12552684343800    8.79168519795037
C         3.75408201285335    8.37223426184838   14.14217629593520
C         3.70186666998824    3.71825716449838   10.96238036807851
H         3.69473440657909    4.56191705304561   11.65091752892865
C         4.47291001775712    7.61239085619249    6.07374237621338
H         5.25633382637687    7.50199063924976    5.33945724397418
C         0.22250339868648    3.13484712595957   12.64949237662002
H         0.48311807388682    2.35828303955253   11.93306592634184
H         1.10260028113841    3.34454039944508   13.26017556881598
C        -0.18639635153897    8.72051101432264   11.38268314295218
H        -0.06014567293152    8.28021229377129   12.37064388093721
H         0.72409842769319    9.27735575343425   11.15412212313135
C        -0.04023152144685    1.36868074068995    6.85152215796006
C        -0.94966926658193    2.74508917752624   13.54506641287624
H        -1.72801766673660    2.26243163616630   12.95298171142531
H        -0.65321208776841    2.06850711863030   14.34512118254985
C         4.98945760389542    3.76893709022428   10.10389040591716
H         4.75234922391366    4.03179067762915    9.07475167058213
H         5.65347806882012    4.53709179390871   10.49857952909232
C        -1.49676671073266    8.24285357641578    9.35448740428100
H        -1.19786540809259    8.16563558881958    8.31045852288049
H        -2.42351770666864    7.68196846239840    9.47423086987486
C         5.63752084390905    2.39135382791155   10.23789651699768
H         5.22765457293488    1.69595041269985    9.50332821585219
H         6.71652219346158    2.43036170106633   10.09697906077054
C        -1.70699652746362    9.68914310156352    9.80709512151388
H        -1.00452110217435   10.35947477481478    9.30872884894391
H        -2.71530573868329   10.04262593388508    9.59702810757964
C         5.24926480876104    1.95516882194920   11.64739039302565
H         5.87104725984717    2.47710209088594   12.37599360276370
H         5.36154621696968    0.88321515118704   11.80546429842242
C        -1.40302807396417    9.63956914438449   11.30149370500104
H        -2.24429162130425    9.19415810177212   11.83475880090372
H        -1.20697667746800   10.62269841680703   11.72649090283860
C        -1.37606140536953    4.99505751333871   12.82927229303298
H        -1.21222476784796    6.03940819340054   13.09281653127474
H        -2.31464018904918    4.93805913061424   12.27755992726154
C        -1.44934567974168    4.09054694751944   14.06225676521334
H        -0.78468269135595    4.45267042376718   14.84914024269375
H        -2.45675887990239    4.03534201375481   14.47156576476263

