84
CSD_code = BUZGOU | q = 0 | S = 0 | Stoichiometry = C29H52NPPt | MND = 2
Pt        2.34926166703614    8.35603170248065    5.23207494276198
N         3.27494765590919    8.57765723627489    2.47144332625633
P         1.85638517005677    7.45972375399296    7.23992478664705
C         2.59923470415934    9.17580287690854    3.42668624938696
C         2.11448592089605   10.50598384362399    2.90579735344967
C         2.80013218567659   10.67249342191859    1.53138868762426
H         2.09100928398610   10.99055709986035    0.76883604673361
H         3.58463438066673   11.42731787281048    1.59461868925008
C         0.58766802835941   10.44675757202827    2.78506725789603
H         0.19130965723212   11.41347278434897    2.48004013864436
H         0.15905272306237   10.17615384933492    3.74882345696632
H         0.28412195180997    9.69822559815104    2.05610313493316
C         3.40935288915488    9.30107507376124    1.18886888310706
C         2.50402677549034   11.61046129053686    3.89053315291847
H         3.58653360673937   11.67960618931758    3.98159452125254
H         2.09409374649311   11.37748464274813    4.87290535557066
H         2.11700948630087   12.57340155144143    3.56250546633139
C         2.63083797441804    8.59551057447795    0.07436707693879
H         2.77423708757422    9.12931290590559   -0.86272845552584
H         1.56560342733786    8.57079993389467    0.28860739689701
H         2.99045388029030    7.57693849087863   -0.05212258558243
C         4.87131073065537    9.40208504267127    0.75116636371485
H         5.31336889895393    8.41067483506203    0.67330078866395
H         5.45773778364920    9.99194538515221    1.44979712742282
H         4.92495088007886    9.88167301545376   -0.22374753668161
C         3.87377284195233    7.30153764215585    2.69402209944030
C         5.17565740488966    7.23571065131280    3.21415917680270
C         5.78755235867693    5.99498734709000    3.31967383536454
H         6.78883425465667    5.92549354676567    3.71477235174057
C         5.12800038566704    4.84146330222856    2.94210756619267
H         5.62514580955551    3.88513107360818    3.01369257028162
C         3.81132574865731    4.90923689898816    2.53120257585029
H         3.27841525497244    3.99686974400229    2.31393502320933
C         3.15964676020640    6.12887036011276    2.40929068767791
C         5.84439623642888    8.45277658050599    3.80949537168559
H         5.33180103993052    9.35120273951774    3.45966848240785
C         7.32540115846902    8.57403342975732    3.45303157610169
H         7.47357627314166    8.50121566255868    2.37730701316462
H         7.91320194893530    7.79690768005770    3.93456609417372
H         7.70764511991807    9.53608851870990    3.78920224954115
C         5.63587577576985    8.38489053906743    5.32514074823397
H         4.54530899022008    8.34428595132420    5.52444081475910
H         6.05162450646688    9.26553010542701    5.80945266513894
H         6.10274383495775    7.49594903138346    5.74208129654296
C         1.67340684231637    6.15684342037797    2.14131430562320
H         1.37638652522159    7.17325208735976    1.88171693714162
C         1.23651664931331    5.22301291670286    1.01324346530315
H         1.82603087909215    5.39325750489546    0.11428446073891
H         0.18948021755243    5.39898735983219    0.77474800476400
H         1.34136362090292    4.17977747669703    1.29971793010503
C         0.96807894512058    5.81221686515185    3.45603527481897
H        -0.11178671545928    5.84847109908524    3.33088038940624
H         1.26645875304951    6.55753985773157    4.21663084948058
H         1.25234306315767    4.82124260724944    3.80158611603464
C         2.90788569059747    8.13151430990833    8.64034055681497
H         3.81741341108167    7.51751698069485    8.59947837803234
C         2.33767758566827    8.06379007767867   10.05339030557093
H         1.47296676484999    8.71526358466309   10.15726736866699
H         3.09318599927252    8.40067975776360   10.76358798660834
H         2.04264712427639    7.05563156859104   10.32906037683286
C         3.30296127845239    9.56972911878662    8.29334586626412
H         3.46314069939692    9.66668210820544    7.21503706046418
H         4.21485737008986    9.86066812920833    8.81263875844055
H         2.51679685679899   10.26621645387569    8.57587362167784
C         0.09322274823211    7.67779843968836    7.80991175782239
H        -0.04035479686075    7.33474080395766    8.84085159178459
C        -0.83740483816833    6.90252658060896    6.88220831326896
H        -0.61425915630653    7.16078029136905    5.84692162377173
H        -1.87596708535420    7.16208962936470    7.08477876145385
H        -0.72892139721281    5.82772003323877    7.00679163426093
C        -0.21629450666685    9.16922453743991    7.70098408669294
H         0.10290363862576    9.52441483047659    6.71708657536007
H         0.30934382110783    9.74533693923627    8.45810798346127
H        -1.28370109687520    9.35647075581464    7.81119869672281
C         2.13206711126324    5.61051603037253    7.28812938609979
H         1.35532802508152    5.21224885102256    6.62394022404373
C         2.02415106574497    4.91067722412727    8.63629458100674
H         2.08060854176322    3.83099174556882    8.49575447943681
H         1.07809117257226    5.13583956287297    9.12476529650406
H         2.84109105873464    5.20222649566669    9.29268987380163
C         3.47861736750151    5.33836232521207    6.61980295178564
H         3.60433556552546    4.27622545396176    6.41490782153508
H         4.30250180874201    5.66078534437865    7.25425177131958
H         3.53824319234544    5.88090349351601    5.67345075319985

