35
CSD_code = BUZTAR | q = 0 | S = 0 | Stoichiometry = C17H11N2O4Re | MND = 6
Re        5.16231382490725    6.18560801439950    9.22547928463240
N         6.65115688962097    7.51138124428906    8.34700666509572
C         7.83084959362445    7.19009016247448    7.85417396423741
H         8.07741987731557    6.13681857350442    7.81425329137387
C         8.74097310815715    8.14614714712613    7.38780446673618
H         9.69102680906846    7.81857282761610    6.99531636919586
C         8.40787765845812    9.47329656606933    7.43524448196724
H         9.08861181170162   10.23429464751894    7.08140137242361
C         7.15209191573850    9.85767519447364    7.94900634866165
C         6.71159884714335   11.18476622564233    8.04332480341720
H         7.35909651269402   11.97974962759817    7.70642021498185
C         5.46285103628568   11.45517221610394    8.55737564105289
H         5.12882448171787   12.48121550769275    8.62367654184256
C         4.61204313468454   10.45014297253088    8.99471813676681
H         3.63583108310877   10.68910469682093    9.38908409856535
C         4.98881417688064    9.10496011952042    8.92858825824773
C         6.29612881224667    8.81476746107208    8.39638805374434
O         4.23635334402637    8.14466968049319    9.32619947143763
N         6.04584815164383    6.93203705831994   11.11000291110007
C         5.27805311099975    7.62489336325815   11.94980250335500
H         4.21877745921972    7.65230179033247   11.72838980753487
C         5.78400166215743    8.30017762468064   13.04711640472027
H         5.11676765242007    8.85019467844650   13.69139729886743
C         7.14587112860192    8.25593200774968   13.29454754427480
H         7.57421537582732    8.77456807361185   14.13871592267076
C         7.94457392092337    7.52316580499004   12.43057177788176
H         9.01008921291728    7.44985086482273   12.58037919863967
C         7.35412739587571    6.87964803218152   11.35841604493575
H         7.95708118159042    6.29577493251682   10.67394220350662
C         3.70886721774769    5.28252714599143   10.16072312493596
O         2.82939270347831    4.82170426244672   10.73084757247670
C         4.37918784633329    5.80851874072477    7.48157532167658
O         3.92202862924521    5.66303638458241    6.44327247325406
C         6.24735969108313    4.57431380875309    9.20294952893784
O         6.94599474255476    3.65922254164651    9.19148889685380

