82
CSD_code = BUZYAX | q = 1 | S = 0 | Stoichiometry = C39H36ClN2OP2Ru(1+) | MND = 6
Ru       -3.04483320674106   -3.60455419838558   -5.83875775895379
Cl       -1.89224721509359   -4.40551894495362   -7.74774425166478
P        -1.54553097141506   -1.76867720990625   -5.97947003885635
P        -4.68398065670792   -2.32452220277532   -6.99716950554390
O        -4.41022400272663   -3.34521136984926   -3.20691523908832
N        -1.75911062488759   -4.86554448534512   -4.84472857725034
N        -4.01297605640555   -5.40357072389110   -6.03905436188903
C        -3.90067598494473   -3.29131203875999   -4.23131608201836
C        -0.77373513979232   -4.55535461568314   -4.01185700198580
H        -0.74139228497458   -3.53327814867417   -3.65685554047367
C         0.17890367540404   -5.47105668103769   -3.60250423260663
H         0.96520802812588   -5.16522857892085   -2.93264696522368
C         0.10437697756173   -6.76812942975514   -4.08835858017438
H         0.84791540087106   -7.50238675341254   -3.82193539967857
C        -0.96153611107178   -7.11344758684265   -4.89881099909317
H        -1.06395976731203   -8.12476783355476   -5.25480436574024
C        -1.89831029400216   -6.14249063720001   -5.25075477884109
C        -3.14724078181257   -6.43420992148464   -5.96271203416599
C        -3.48949315232448   -7.69521830501746   -6.44918786315458
H        -2.77742939992675   -8.50272496288795   -6.41866365051536
C        -4.74383497511036   -7.89680046737736   -6.99570598270333
H        -5.01635675237900   -8.86075208174867   -7.39521770772081
C        -5.64384654456115   -6.84122338950483   -7.00738196675753
H        -6.64038340638407   -6.95738684914240   -7.40017047342885
C        -5.22949335146997   -5.61298349116335   -6.52289529658779
H        -5.89860128235813   -4.76122551841998   -6.51955445619168
C         0.19196336028637   -2.08765293662674   -5.50079536967906
C         0.86256762272062   -1.32249200245966   -4.55118062520806
H         0.36216024036381   -0.50413370256493   -4.05513781623793
C         2.18258381034319   -1.60217364759458   -4.24088310967999
H         2.69593604558187   -0.99699433655670   -3.50912309884740
C         2.84348911091198   -2.64583240951065   -4.86576411487319
H         3.87286664102914   -2.85815376965749   -4.62106334007579
C         2.18081380049590   -3.41316650435622   -5.81066398447637
H         2.69168731671787   -4.22578700742140   -6.30503610610178
C         0.86434419971385   -3.13757701730746   -6.12660493803381
H         0.35343625543803   -3.74236096039524   -6.86342074254211
C        -1.92800817064281   -0.33107890666022   -4.91596796451997
C        -1.84914104867987    1.00121802361683   -5.30878539187052
H        -1.56621557666570    1.26687132514020   -6.31610682771856
C        -2.14072990558437    2.01084254108826   -4.40687700953494
H        -2.07941345784337    3.04079942754328   -4.72394638377302
C        -2.50600471923545    1.70680853377551   -3.10634451313574
H        -2.73256527370197    2.49828990158182   -2.40914300674031
C        -2.57601103851332    0.38268350649891   -2.70238694355763
H        -2.85378192155573    0.13712460613976   -1.68869715297582
C        -2.28991936587779   -0.62599400422583   -3.60260710748875
H        -2.33902403857138   -1.66275786655961   -3.29164597704773
C        -1.22060121660290   -1.13648023619198   -7.68668342768042
H        -0.82665011396446   -0.11930492853228   -7.60108409516830
H        -0.40141149960356   -1.77261937302776   -8.04017490288828
C        -2.33414916059831   -1.21640586999591   -8.72771574375661
H        -1.87885385624673   -1.02769708909939   -9.70337960633165
H        -2.72651576226244   -2.23844542524951   -8.74953159490229
C        -6.13741444926235   -2.10614675093629   -5.91253266456018
C        -5.98065509738128   -1.30679550024051   -4.78083128221187
H        -5.02438615981458   -0.83832694049447   -4.58296381068451
C        -7.03519785695150   -1.11338061320678   -3.90980879684839
H        -6.90377650845372   -0.48959423922298   -3.03884110896805
C        -8.25766963897218   -1.71994968229274   -4.15363740515633
H        -9.08062115840564   -1.57091013866116   -3.47205563087499
C        -8.42115945880549   -2.51455193031809   -5.27484067639309
H        -9.37273164598162   -2.98483455496862   -5.47156135023571
C        -7.36801830578298   -2.70849811916180   -6.15290614388186
H        -7.51863232617484   -3.31337829006407   -7.03741547403287
C        -5.42690100734533   -2.82252221858593   -8.58305920291008
C        -4.97880270032295   -3.94576176599078   -9.26845129630773
H        -4.16774705074975   -4.53707442039871   -8.86750010105121
C        -5.55290266263080   -4.29749566213515  -10.47791443546822
H        -5.19674532062940   -5.16907096963243  -11.00593376211110
C        -6.57467646529787   -3.53041427713217  -11.01043530882677
H        -7.02128018149500   -3.80387549926875  -11.95397619483534
C        -7.02308365334937   -2.40661080337751  -10.33259486262131
H        -7.81812307982885   -1.80590110876243  -10.74793382167645
C        -6.45486514639386   -2.05083286782481   -9.12459577779157
H        -6.81508732470474   -1.18016359615073   -8.59486717885677
C        -4.31335758323021   -0.53400542119945   -7.28795749641052
H        -5.26746718370666    0.00153773300010   -7.32877106997055
H        -3.77669373094285   -0.18254528108060   -6.40234476321844
C        -3.50171911276016   -0.25696635741191   -8.54862288131275
H        -4.15087673246024   -0.35849660269938   -9.42177958826099
H        -3.14537285524515    0.77601243253271   -8.52274390931328

