93
CSD_code = BUZYOL | q = 1 | S = 0 | Stoichiometry = C43H42ClN4P2Ru(1+) | MND = 6
Ru        0.77703188512575    0.13219700828356   13.80361656413208
Cl       -0.29952613887385   -1.82289340863437   14.63936585928137
P        -0.08455369132557    1.16611128914817   15.76173788110390
P        -1.22181589357732    0.46658572161435   12.58050905117470
N         1.80117499155697    1.61196852888643   12.91625091351178
N         1.52541420701495   -0.85072754759933   12.21003926181787
N         2.56317340170937   -0.41907049175974   14.78555756526671
N         6.09633065470304   -1.59370235598951   16.63911133803381
H         6.69880530384741   -0.91558084248506   17.06968574052300
H         6.31397643574495   -2.56772022502444   16.75042364235847
C        -1.86479593540245    1.62981918534384   15.59060274105926
H        -1.95903454448685    2.19558454840524   14.65908318381828
H        -2.12624376115941    2.30242685964288   16.41174598758812
C        -2.80910688595302    0.42062892619221   15.55434520444841
H        -3.52241540635741    0.50266626102816   16.37556832423860
H        -2.25069320106575   -0.50668829740370   15.70775387258962
C        -3.57858399741151    0.32341169131933   14.23764875896282
H        -4.47680454877078   -0.27727526572622   14.40032441470242
H        -3.90445641630261    1.31916593914558   13.92240782691960
C        -2.78785417345887   -0.35314306181173   13.12088662357964
H        -2.50878132311434   -1.35892186226210   13.44670415940258
H        -3.41719238796518   -0.43438052262874   12.22817128253202
C         1.96365168788615    2.86153673252485   13.36175111438021
H         1.50897648827642    3.09438247381699   14.31546069323194
C         2.66974306538343    3.83439105476668   12.68590207039208
H         2.75288432227010    4.82311074292041   13.10671611716607
C         3.25739422195390    3.51433783474229   11.46788785835792
H         3.80052894056877    4.25157749005140   10.89955204239015
C         3.13788407654651    2.21580909401716   11.01408748979325
H         3.59720736633491    1.92544759247933   10.08409822496835
C         2.42184217390353    1.27839383970792   11.75726955671583
C         1.34327239959372   -2.14166961769125   11.94800516897758
H         0.69944110505167   -2.68229531221630   12.63196991581183
C         1.91597689929635   -2.77727143821997   10.86356357139172
H         1.73533005290262   -3.82668270513913   10.69944182431604
C         2.71142056873048   -2.03894877816651    9.99855725647289
H         3.17295956801597   -2.49965438555807    9.13981743565560
C         2.89754485088762   -0.69545582041347   10.25907938840945
H         3.50828197128690   -0.09830981862995    9.60294080048388
C         2.28972189404838   -0.12038032442538   11.37455276389608
C         3.41012883443981    0.47548959915539   15.30504150002936
H         3.13081663499225    1.51855109182164   15.22422261990794
C         4.58597577330778    0.13696488650609   15.92887712681691
H         5.22182959351687    0.90900473083767   16.33251703903065
C         4.95147264266000   -1.21424418409510   16.04396355695883
C         4.05856641579053   -2.14525557221968   15.49055077361142
H         4.27031033289043   -3.20123750324859   15.54431381162602
C         2.90442929980583   -1.70950858432915   14.88701696482254
H         2.20312260977891   -2.43209253218179   14.48921589440961
C        -0.09640416136018    0.26332579306895   17.35614942306374
C         0.65043766013983   -0.89118783992168   17.55069182054344
H         1.21743573528888   -1.31226503569639   16.73519630845400
C         0.65481862436139   -1.52619203757245   18.78090224689702
H         1.23250875918126   -2.42893258226776   18.91343224299502
C        -0.08067647654082   -1.01053821488787   19.83252826427823
H        -0.08312561246729   -1.50860605534635   20.79009183556965
C        -0.81204873893638    0.15305948393477   19.65289276729787
H        -1.38037671469666    0.56637813865359   20.47267814135337
C        -0.81583673613652    0.79041453388601   18.42772749550311
H        -1.37479531838690    1.70733126101070   18.31244722535976
C         0.60664168105733    2.73281033020494   16.42092374073620
C         1.70918228196140    2.66149481801077   17.27051366838725
H         2.10616003114109    1.69232401577883   17.54306434745000
C         2.27817024737862    3.81196043023780   17.78369081710374
H         3.12526354885201    3.74142305302003   18.44947439401421
C         1.75619807022560    5.05236603708150   17.45345455463800
H         2.19583952174399    5.95076808727640   17.85843970561782
C         0.66289700632656    5.13418721883948   16.60779368306013
H         0.24777276055461    6.09778036299865   16.35254221594304
C         0.09191767441953    3.98419740303763   16.09010085119261
H        -0.75953908914868    4.06829269778203   15.43053468866218
C        -1.01232680304313   -0.28331593626794   10.92884673364371
C        -1.36941698806932   -1.60002472657107   10.65721066419950
H        -1.82342872258538   -2.20885448948969   11.42470529517239
C        -1.14146450160705   -2.13631530608866    9.40160446183131
H        -1.43317718962234   -3.15502576837768    9.19481155821522
C        -0.54241148767791   -1.37346710250999    8.41375224742132
H        -0.36996573554215   -1.79379550896433    7.43482248299557
C        -0.16497710644598   -0.06781106210150    8.68425321357102
H         0.30458406012183    0.53058285609857    7.91763757294133
C        -0.39345473548211    0.47292092477546    9.93511602411663
H        -0.10389424944909    1.49562942724299   10.14562486194293
C        -1.83438862259991    2.10507135530405   12.04259809021545
C        -2.89937832176612    2.19164091219454   11.14950835466887
H        -3.35720500686565    1.29214465403416   10.76382305863677
C        -3.36488229532346    3.42737528785267   10.74165290423619
H        -4.19339776593481    3.48634491836232   10.05216014714004
C        -2.77056058679941    4.58881823986862   11.21094415472687
H        -3.13747041863391    5.55126268802116   10.88906295473685
C        -1.70251770047127    4.51039201173823   12.08793411023050
H        -1.22943566803841    5.41108539873875   12.45076492852491
C        -1.23904518641583    3.27324688227524   12.50032162305515
H        -0.40458808730014    3.20364978024927   13.18366134255766

