32
CSD_code = BUZZIG | q = 0 | S = 0 | Stoichiometry = C13H13Cl2N3Pd | MND = 4
Pd        8.42872400446826    1.16548493900502    5.77841861612289
N         6.66477760412553    0.71774974178170    6.64358835555913
N         5.04764773394508    4.50470272725325    4.67853120643066
N         7.26805251420276    2.41486424182528    4.78294459305358
Cl        9.59971318324544   -0.22766159615160    7.03986282129974
Cl       10.27254632675975    1.57761022290357    4.61859150141587
C         5.62273203152572    1.36169437139320    6.06596276702452
C         4.31104470280051    1.13292977140476    6.49234302175649
H         3.49741259004467    1.67352874886535    6.03527061689933
C         4.07674317997697    0.22084149696023    7.50131738345735
H         3.07085281405715    0.02902487774957    7.84176321782552
C         5.15856822575510   -0.44139280419141    8.07316623289584
H         5.01551800847600   -1.16021732762537    8.86319437568206
C         6.43341771341685   -0.15871228396976    7.61843101330447
H         7.31084608558720   -0.63990464854622    8.03722627504795
C         4.95938933573937    3.19844505252397    4.45109478136698
C         3.94035057076956    2.64038942939602    3.67954029152772
H         3.91695675314903    1.57735683570339    3.49370861683464
C         2.98269456292973    3.48440955106305    3.14231251762155
H         2.18244972237430    3.08563878942170    2.53623849380078
C         3.06971365491235    4.84483480730303    3.39438491717383
H         2.34081200714225    5.53361819480314    2.99837464174178
C         4.12850212291585    5.30061750229901    4.16601183903636
H         4.25319917594892    6.35202077987332    4.38730645701014
C         6.00294891171496    2.33312709743757    5.05652926538483
C         7.79419588877933    3.45556653357063    3.93970081056774
H         7.02134057195872    3.88430854460778    3.29320809741687
H         8.59987033334506    3.02096763538877    3.33839112423107
C         8.38482768935262    4.53501260333914    4.85117628666183
H         7.58724428252110    5.02717719707700    5.40360479604295
H         8.92122384391772    5.26791613971657    4.25657398624670
H         9.08468385401581    4.06715082785441    5.55193107958905

