33
CSD_code = BZASFE | q = 0 | S = 0 | Stoichiometry = C16H10As2FeO4 | MND = 6
As        1.93986778667854    6.72156582596721   12.28377035645465
As        1.32999448676553    7.51604093366230   14.38126030006998
Fe        1.39226278644322    9.15871799017888   12.49022990459462
O         2.28763132628036    9.94049387308382    9.82397147104610
O         3.98722974437259    9.74554287032024   13.67086493309917
O        -1.15662901934646    8.21292136430020   11.45029430220391
O         0.14494084207960   11.38117953105998   13.91415584844417
C         1.93735091024979    9.62401691046098   10.86549343470798
C         2.97147630565065    9.52468018169363   13.19034487504843
C        -0.16297370856638    8.60300494048185   11.86490612992588
C         0.63444097864944   10.50460847689840   13.36675211217314
C         3.90507314678953    6.81714577202102   12.48685072517751
C         4.55400557997058    6.47281847908422   13.66931033344874
C         5.93054121540242    6.56120357515471   13.77175079876521
C         6.68250723486605    6.98331204327834   12.68884918666895
C         6.05237969529842    7.30617949442206   11.49862813972537
C         4.67683754384980    7.21689896929874   11.39849519542871
C        -0.58713287362363    7.03245331317695   14.32551555601001
C        -1.03432313783861    5.81876182260734   13.81080578403165
C        -2.38407276956072    5.51755654196517   13.78235147183360
C        -3.30830840624703    6.42045041821979   14.27910940760359
C        -2.87580640897932    7.62173041006309   14.81563083729653
C        -1.52664285188106    7.92006597236923   14.84419005858230
H         3.96749438156041    6.13791528378760   14.52420310487267
H         6.41691898434323    6.30240506222332   14.70100256195308
H         7.75662283359028    7.05859159652527   12.77075297323065
H         6.63407390162368    7.63101537678390   10.64789543633116
H         4.18580394404826    7.47344709353229   10.46471924493114
H        -0.31084892901989    5.10397768323108   13.42022801876224
H        -2.71498012528819    4.57615475244004   13.36846621111487
H        -4.36258581744034    6.18853851844768   14.25049203893169
H        -3.59180144821151    8.32871250966301   15.20956256099908
H        -1.19154813245579    8.86419241361412   15.26264668651923

