19
CSD_code = BZCRCO | q = 0 | S = 0 | Stoichiometry = C9H6CrO3 | MND = 9
Cr        2.02681209772609    2.76753728317436    0.15498633866511
C         1.50436812086220    3.46469899276887   -1.93953249864734
C         2.65085281752829    4.16990779190495   -1.51628564285541
C         3.78282970318823    3.47262418639942   -1.09765772873828
C         2.89388688021255    2.76860287617676    1.75873367603661
C         0.96687853860228    3.95394847844967    1.04532795104816
H         0.65548370192747    4.00968566677067   -2.33475451022895
H         2.67297199206789    5.25062189204726   -1.58984853494389
H         4.68983125998150    4.00826602898303   -0.84403517668898
O         3.37470372264977    2.76904771274693    2.80887658385167
O         0.30012950759020    4.65979725863121    1.67072002216145
C         1.50407450173971    2.07072839778106   -1.93967876879727
C         2.65030110615454    1.36497336820508   -1.51659401735873
C         3.78261743805704    2.06165889593891   -1.09797879462172
C         0.96735226253878    1.58070772468117    1.04534355455567
H         0.65496006793084    1.52619781750958   -2.33502948599622
H         2.67194582274691    0.28426742121890   -1.59046226637465
H         4.68939845898212    1.52556156112827   -0.84454492775844
O         0.30170199951355    0.87366664548384    1.67061422669119

