64
CSD_code = BZPHRH | q = 0 | S = 0 | Stoichiometry = C34H24O4PRe | MND = 6
Re        4.47306449346938    1.90313467506497    0.60999139129838
P         4.30364416484088    3.41996242779614    2.52923011490966
C         2.67095751175257    3.35540031571371    3.32768201964869
C         1.63270896659276    4.20202976114538    2.95406706936882
C         0.37115958338381    4.02854488873298    3.49355351889237
C         0.13350609667380    3.00349220085606    4.39313594421562
C         1.15837923116138    2.14061689202017    4.74740322047003
C         2.41996921553075    2.30808788919807    4.21082138722546
H         1.80741842288105    4.99513559394855    2.23805135017954
H        -0.43045295688308    4.69160071755536    3.20224054269360
H        -0.85392464900535    2.87002032057627    4.80936895990122
H         0.97031272063054    1.32994730975181    5.43566165325095
H         3.22079313483792    1.62566363769554    4.46423128819536
C         5.43374100191441    3.16628987105926    3.94186302898122
C         5.15175738547078    3.69565186220335    5.19774718684932
C         6.04927937094876    3.53019691668517    6.23542215455712
C         7.23423341240221    2.84128378571620    6.03007502227778
C         7.51838460648836    2.31202643364828    4.78282379450237
C         6.62221883547648    2.47417956246358    3.74123765627800
H         4.22364629413106    4.22195302410839    5.37030697497579
H         5.82292691325965    3.93896056771683    7.20946249524380
H         7.93178194841907    2.71404317159507    6.84451537332109
H         8.43689283405883    1.76847064399167    4.61996278028422
H         6.83393786299305    2.05137933449820    2.76706809672321
C         4.58614532490981    5.20100554871751    2.23670643461907
C         5.37573407608733    5.58174807694688    1.15687912598466
C         5.63831296889412    6.91930279310888    0.91844165277961
C         5.11683134259142    7.88725297742465    1.75989627049013
C         4.34018831392844    7.51312334838830    2.84538220583555
C         4.07794608925257    6.17779864903094    3.08922543366081
H         5.77039378573577    4.82839829842741    0.48894807256802
H         6.24458065770397    7.20435756073041    0.07136763661944
H         5.31346256749049    8.93238212187653    1.57155206475912
H         3.93476948151635    8.26625698477377    3.50545999049002
H         3.46734793164292    5.89894364797058    3.93613870735486
C         1.80361845944391    4.95067737309172   -1.16845264525858
C         2.21148428466989    6.23079679862928   -0.80567068852704
C         1.66233337662171    7.33609083897558   -1.42859322516859
C         0.72144690478274    7.17113649105689   -2.43155249009437
C         0.33207976966276    5.89749004157817   -2.81355218438525
C         0.86542056160688    4.78777090765084   -2.18359569139349
H         2.95322476839002    6.35371663231703   -0.02901440600179
H         1.97545442415201    8.32703965782858   -1.13454033096521
H         0.29737599331910    8.03478338230307   -2.92189984411936
H        -0.38965508116377    5.76758289925090   -3.60632880935750
H         0.57845520350251    3.79352170795332   -2.49391374021133
C         2.31818126954315    1.71890895497325    0.77190583180383
C         1.59659733514659    2.77364873023266    0.15487102191496
C         0.20059503209298    2.86641498008378    0.23161025627496
C        -0.51095001265106    1.89215947195806    0.88970702911677
C         0.16675283357735    0.82845165842145    1.47642941949170
C         1.54496329764785    0.75177084581184    1.41991012807224
H        -0.31032935842156    3.71048029243128   -0.21050178759202
H        -1.58760829493938    1.95387298971697    0.95597739079926
H        -0.39295553241594    0.06010913722970    1.99193037820544
H         2.04106357721674   -0.08193203918965    1.90004468317981
C         2.41394862805515    3.78141048675318   -0.49254689988600
O         3.65240912534902    3.70689204115525   -0.46284917325693
C         6.33765198048161    2.39417433529983    0.21123383770826
O         7.41018123420780    2.64832503846947   -0.10455407512660
C         4.92566704274396    0.36525784041717    1.70627011754148
O         5.13092448555741   -0.52695186617496    2.40730990379499
C         4.26172453388995    0.82746873173943   -0.99759743995789
O         4.04879522196332    0.22618983446019   -1.94945718557049

