31
CSD_code = BZQNIX | q = 0 | S = 0 | Stoichiometry = C12H10N4NiO4 | MND = 4
C        -1.33097151523150    1.30203758964189    1.94171806836282
C        -0.90301293379723    2.34166195336814    1.02605920900113
C        -1.24396545062991    3.69619878004948    1.32199283136779
C        -1.95259422604017    3.97643696739718    2.44320788902344
C        -2.37166130593063    2.95371410243392    3.34180623637853
C        -2.07409533031724    1.65253259324687    3.10567397515138
Ni       -0.00000246173378   -0.00000239643191   -0.00000128902025
N        -0.97679005253062    0.07046958486319    1.59952808803260
N        -0.22556371263996    1.91782216891865   -0.01214664201407
O        -1.28454622058565   -0.93783852081931    2.31106986595679
O         0.21382906092307    2.83982568806212   -0.92150378100814
H         0.70163495628945    2.29455598710220   -1.61884764297606
H        -0.92139513044960    4.46302740559600    0.63574636370057
H        -2.37858384518109    0.85729232032327    3.76875152965576
H        -2.93311849284701    3.23399448608223    4.21991726441918
H        -2.21342822463597    4.99886007054597    2.67296361977205
N         0.97678529351970   -0.07047253287508   -1.59952736872036
N         0.22555961186857   -1.91782517834828    0.01214335475438
C         1.33096746835257   -1.30204026500993   -1.94171787037723
O         1.28455126725909    0.93784680328807   -2.31106905220324
C         0.90300822011919   -2.34166583855707   -1.02606029489520
O        -0.21382699889395   -2.83982321144452    0.92150341464873
C         2.07409492406068   -1.65253216975024   -3.10567285010217
C         1.24396485077928   -3.69620173748204   -1.32199359115477
H        -0.70162520791323   -2.29454827112409    1.61884988464879
C         2.37166185419699   -2.95371329784144   -3.34180555797480
H         2.37858477084493   -0.85729152329187   -3.76874992588500
C         1.95259433249814   -3.97643769896153   -2.44320827760417
H         0.92139529294614   -4.46303150593685   -0.63574803022299
H         2.93312000840196   -3.23399179330364   -4.21991539495282
H         2.21342919729777   -4.99886055974135   -2.67296402576268

