28
CSD_code = BZTBFE | q = 0 | S = 0 | Stoichiometry = C11H10B2FeO3S | MND = 8
Fe        3.93809863076536    1.79098851383470    2.74087398589529
S         4.36524921734793    2.19410149848519    0.35543445211703
B         2.57512931875831    1.82959811255779    0.66535407690676
B         4.34816846108200    3.78088976453148    1.31240293884668
O         3.08147576999092    1.64482315015987    5.50023226272443
O         3.57573835352278   -1.10537643113084    2.61462030838514
O         6.63857977084792    2.28599483763209    3.74087125326645
C         3.40330305148007    1.71880513332847    4.40092108308546
C         3.64392646843457    0.03941897499497    2.59693435866646
C         5.58095027908175    2.18419214323799    3.30898953411023
C         2.00469354410336    2.92447060456542    1.59834501959375
C         0.68371096838705    3.02591475384037    2.08164121323990
C         0.29469151073945    4.08950106061891    2.85425251294583
C         1.20956939341029    5.09659148913972    3.18801504889239
C         2.50584219939617    5.03169378812395    2.74646634461258
C         2.94580765920341    3.96042925602301    1.94172395902487
C         1.80087814327757    0.69364368608013   -0.10725577311169
C         5.54188590891534    4.80972326531780    1.25596025376895
H         3.20554453617333    5.81609543563870    2.99841643960116
H        -0.02795656490440    2.25606360151357    1.81873264500428
H         0.88105251555290    5.93205676890026    3.78888367057748
H         5.62633851422879    5.40319203659689    2.16398818347375
H        -0.72496732568907    4.16408592277678    3.20298361380468
H         5.38983585852050    5.51420251004146    0.43678568726297
H         6.50385943205652    4.33319577962991    1.08027644565776
H         0.98889859537576    0.26827722939649    0.47888159803810
H         2.44774379414250   -0.12314966983244   -0.41978137073509
H         1.34935199579851    1.09877678399760   -1.01414974565538

