130
CSD_code = CABDAM | q = 0 | S = 0 | Stoichiometry = C45H78LaN3Si3 | MND = 3
La        1.95476497009393    2.52741258883262    3.79716551318373
Si        0.27125636007661    2.03048576585326    6.93532366198860
Si        1.98499694014765    6.10774791040737    3.45585953922118
Si        5.37966177711626    1.76359704122747    4.59079875334374
N         1.12490283900002    4.67322672500540    3.05202092728379
N         0.70525532918065    1.27829322171378    5.44992814337093
N         4.24151033691854    1.90452515183771    3.30833830430541
C         0.06434427035822    4.67405292535559    2.12587914839767
C         0.28816224230213    4.23751478025574    0.79950185503048
C        -0.76915361362699    4.15683140892491   -0.09317324428592
H        -0.59144493488565    3.81077537182223   -1.10074873173975
C        -2.04889266251177    4.52372294096489    0.27504833950952
H        -2.86472058137285    4.44941503723346   -0.42853881553819
C        -2.26154620285141    5.01543553558310    1.54770214860427
H        -3.25379491684042    5.33855820270788    1.82652722751148
C        -1.23173302893049    5.11054982909382    2.47202321064053
C         1.67839408265795    3.89518562305438    0.30515313327877
H         2.39391003200755    4.08794760139451    1.11830525613717
C         1.79581347686084    2.42289090363881   -0.10222179787739
H         1.68966880353828    1.76409288392792    0.76483750436103
H         2.77179831015216    2.23347518817608   -0.54313362222970
H         1.03074373389916    2.16077937052203   -0.83014000362257
C         2.05790083086599    4.78407242081697   -0.88302631994708
H         1.94214217860432    5.83361725251072   -0.62764412661892
H         1.42785488241343    4.57141119912256   -1.74287500778596
H         3.09177100028134    4.60431839802694   -1.16850377937529
C        -1.53047507495206    5.72918296421591    3.81681197924766
H        -0.60565463877117    5.74454652462142    4.39203062264203
C        -1.99730295414159    7.17606959621427    3.63251532487092
H        -1.28563497534035    7.72792623776193    3.02245681786850
H        -2.08716640489935    7.66907277730707    4.59853967380791
H        -2.96678820371408    7.21358549251580    3.14133738443614
C        -2.57013945728247    4.93455821185947    4.60879922564427
H        -2.21555896509543    3.92516912792328    4.79803431738303
H        -3.51371802606250    4.87638300039264    4.07087973962031
H        -2.75454121620365    5.41790862892078    5.56624397491158
C         2.21799210486197    7.27066086231854    1.95243333412651
H         3.01625830348806    6.93904262476106    1.29706174074656
H         2.44875781521103    8.28386519439632    2.26393408311385
H         1.30341925840517    7.30620950576643    1.36838423385743
C         1.39851540125138    7.26170573296378    4.88198767929362
H         0.55849937850232    7.88569678766277    4.59867931597826
H         2.21145341653688    7.92638726108142    5.16176244331930
H         1.11680719945673    6.71128934934029    5.77457463103962
C         3.67630690077828    5.46788494342585    4.09848145690031
H         4.07612351857135    4.65904740235261    3.48823500369485
H         3.59751514626061    5.12641115400357    5.13040302504091
H         4.40788812760813    6.26948084049183    4.08868453963903
C         0.18442607135204    0.02820969399627    5.06468824468893
C         0.68363780288226   -1.18374572800854    5.58618397964988
C         0.19413805102871   -2.39214748083728    5.11282993840750
H         0.59265834228925   -3.31521505364356    5.50760995484214
C        -0.79641664331992   -2.44549708181031    4.15229915000390
H        -1.15888144312875   -3.39573197238710    3.78925976312426
C        -1.33752368256794   -1.26342700615560    3.68567898391196
H        -2.14122477032688   -1.30201115686179    2.96517479917182
C        -0.87868642516114   -0.03480865140026    4.13428541859643
C         1.71451748422257   -1.21016893583430    6.68928728785746
H         1.95942343802814   -0.17984325237145    6.94438649926988
C         3.00449639464608   -1.91548007886324    6.26735691338944
H         3.45592770297993   -1.40844503855383    5.41910785446581
H         2.81479287288369   -2.95066214110667    5.99260170716790
H         3.71690913473893   -1.90769052592069    7.08998496112212
C         1.12737462354746   -1.87978396357462    7.93510518317715
H         0.18359181394055   -1.41186869714902    8.20619773231285
H         1.81681663916512   -1.78904472358682    8.77222252235522
H         0.94424959817348   -2.93726910857707    7.75970091985895
C        -1.57130296756701    1.21883215485725    3.64147650840998
H        -1.12863810638242    2.08530498012951    4.15494958627168
C        -3.06377378241538    1.17476749405747    3.98277907307917
H        -3.53609583723345    2.11723837072053    3.71555245864146
H        -3.20790212340142    0.99916441028185    5.04513386432945
H        -3.56309129753300    0.37932130816733    3.43552540512981
C        -1.39911435447425    1.41275020662600    2.13153340957352
H        -0.35249414021845    1.60217704192848    1.87531515732376
H        -1.98156123923345    2.26738547248358    1.79509055081412
H        -1.73284862908608    0.53131952375748    1.58786251705453
C        -1.56260590563024    1.73538707560164    7.40058342352485
H        -2.23576502516009    2.37397076494830    6.83857887410510
H        -1.74092603097422    1.91789387260689    8.45500540492421
H        -1.83463512961185    0.70468899366236    7.19437510708140
C         0.60610691339640    3.89409282304380    6.62336489114605
H         0.22911087714051    4.22871115388856    5.65815967208683
H         1.67201286945247    4.11545561658241    6.68307983028410
H         0.11815570472076    4.49458141184798    7.38451752538862
C         1.25137058343493    1.68604527253804    8.55705865833180
H         2.32653581093382    1.70947313139254    8.40730865555357
H         1.00005495772817    0.73112853861428    9.00454268155885
H         1.01545200640917    2.45450660183668    9.28830857883509
C         4.52877250104640    1.46825655271737    2.00083644298233
C         5.30608606406470    2.23677284050328    1.10908586875864
C         5.48796120928380    1.80378846078165   -0.19604697212244
H         6.07186624872266    2.40610680610604   -0.87649095654999
C         4.94598905023831    0.61647439448662   -0.64705394467431
H         5.09038326051184    0.30023979213101   -1.66945731644162
C         4.24237543629147   -0.17537565003753    0.23953281463986
H         3.85311258508789   -1.12448345402860   -0.09839478060139
C         4.03965634711643    0.21942826807728    1.55261095115551
C         5.99561876837436    3.50711523937506    1.54652475715307
H         5.76294826733808    3.67031941977169    2.59801731976544
C         5.52423320047323    4.73097418082501    0.75959644358986
H         4.45873680722636    4.88845205902720    0.90177153365454
H         5.71970234754997    4.61364909121679   -0.30393829763148
H         6.05068104127100    5.61840941795783    1.10548308122997
C         7.51318513800620    3.34662724649311    1.41710207459200
H         7.84319390463708    2.44602021679994    1.93013064267128
H         8.02140611156235    4.20444577866702    1.85319555751903
H         7.80988926359200    3.27122742489714    0.37363301065663
C         3.33097583156032   -0.73251691508614    2.49363212977282
H         3.34075635472807   -0.29329453430298    3.50183267420606
C         4.06593807019674   -2.07502205479855    2.55203954291672
H         5.11422175397518   -1.92644938026308    2.79562991697627
H         4.00804931827683   -2.59094075493532    1.59707049590500
H         3.61717060013948   -2.71411424052444    3.30902216255230
C         1.87354857690901   -0.96590318072897    2.08278088712461
H         1.28267889882472   -0.05073439435717    2.18991426368381
H         1.42245597142274   -1.72565137453556    2.71704684977094
H         1.81191572806802   -1.29749206192819    1.04822974789180
C         6.40666432871564    0.15045803475022    4.49369308442907
H         5.84400002778805   -0.71479015010885    4.82755668698479
H         7.30426192150311    0.21222387682120    5.09983063385083
H         6.71402631523975   -0.03036131581765    3.46817180276843
C         4.29258483892213    1.78775507711349    6.17163157812414
H         3.43056993169482    1.12720510813400    6.09289262026456
H         3.94630018794633    2.79800848676006    6.39261345683854
H         4.87140456543933    1.45998076338373    7.02926907025540
C         6.67301886779272    3.14775679770123    4.93726221701428
H         6.23611191839095    4.14156031352350    4.91469014460626
H         7.50010371438041    3.13349867895526    4.23654343825052
H         7.09184945609555    3.00709031924229    5.93006695431514

