91
CSD_code = CABHOE | q = 0 | S = 0 | Stoichiometry = C42H30N8O8S2Zn | MND = 4
Zn       13.06724856991718    5.40224200227720   10.97195663781995
S         9.53327192257570    9.56362039235199    5.94873820414476
O        11.12759113341612    5.14327172702798   11.62239040891804
O        11.96586019668996    4.05041724540360    9.93136668643948
O         9.31650282875865    0.60182734000988    7.68099528710827
H         9.12981042949428   -0.08980429851443    7.02731116045089
O         7.30399293707130    0.01439235386596    8.43475350112089
N        12.58106451041511    6.85147298873760    9.49182192101475
N        11.79013765648468    8.91492173706733    4.94994910884542
N        11.17450075456249    9.56136661446686    3.99519336363501
N         7.51357889562193   12.14159263244193    1.65291737389163
C         9.79149812805043    3.43566386944117   10.65391154913343
C         9.65604504261571    2.48782957213687    9.64829145485969
H        10.45515544968656    2.34885486724731    8.93809499046272
C         8.49248870484968    1.73100040356904    9.58262099896976
C         7.47897192697123    1.92223037911482   10.52118287651475
H         6.59005520775251    1.31309816436382   10.44388355849099
C         7.60976004828684    2.86383806168474   11.53003879208423
C         8.77527499865909    3.61924721765969   11.58423835160324
H         8.91486124331976    4.36005321961588   12.35781906391656
C        11.03676084331466    4.25034146480596   10.74462025283071
C         8.28904366206318    0.70474937804154    8.53664451198420
C         6.51793825546934    3.07812099545828   12.53330992455635
H         5.94890420324383    3.97262331991509   12.27953234922763
H         6.93390963160032    3.21822818160903   13.52847978359642
H         5.83497759255566    2.23303653151648   12.54941198417297
C        13.28460768158278    6.87210898230349    8.36553325812644
H        14.23311139574180    6.35802989381341    8.40204313595893
C        12.84360390074053    7.50078441281936    7.21708690937562
H        13.43183822900533    7.50512687630370    6.31417252704406
C        11.60021973981541    8.13744102752404    7.23463428726911
C        10.86640305314535    8.10636716843760    8.42085180419041
H         9.89914761264882    8.58174474462224    8.48494080966660
C        11.39924759435530    7.45403500825260    9.51637783341890
H        10.86014093540120    7.40013863524901   10.45081591397295
C        11.11390518329651    8.80422094625311    6.04916653148326
C         9.98947620728065    9.98314776788032    4.30535652137990
C         7.09193796421046   11.83870739145702    2.86802151046542
H         6.09539433475362   12.17861171195315    3.11641324519617
C         7.85217699728726   11.13392517071194    3.78636101149605
H         7.46615779405491   10.90847252327073    4.76932962979493
C         9.12993202289065   10.72127381838088    3.40871471048235
C         9.57601241615179   11.03995381611575    2.12365779009987
H        10.55871109986410   10.73293597963596    1.80601072719496
C         8.72482385964014   11.74988484282785    1.29443211171021
H         9.02458104577391   12.02100770962895    0.29107894403588
S        16.59918192648411    9.56557290142039   15.99472103113781
O        15.00654968547464    5.14290088248862   10.32088200267157
O        14.16847269114803    4.04987416839017   12.01186826889416
O        16.81709460665222    0.59865941664418   14.25951290814981
H        17.00370506903332   -0.09337628179755   14.91278042414292
O        18.82933079214748    0.01118823205863   13.50512516451204
N        13.55305718508234    6.85088310240350   12.45232297528157
N        14.34333462662120    8.91451310263579   16.99425781679982
N        14.95870330516492    9.56141033293773   17.94887641251346
N        18.61890573570259   12.14270176499218   20.29102695763235
C        16.34237964180753    3.43447671476053   11.28834406192706
C        16.47751293465436    2.48566801415872   12.29309655934542
H        15.67816605474593    2.34593389028124   13.00287786057706
C        17.64112986688983    1.72889980794296   12.35852645177519
C        18.65498573064611    1.92110711863144   11.42051452103945
H        19.54398720264917    1.31207565783391   11.49764635192021
C        18.52441505439089    2.86349182548811   10.41236429529851
C        17.35886149142580    3.61887809113480   10.35846287399572
H        17.21952061280053    4.36037868716045    9.58550256274509
C        15.09736206906653    4.24964332866577   11.19832956375667
C        17.84446670341362    0.70186188491186   13.40366528132458
C        19.61657447477386    3.07869113133523    9.40965858161011
H        20.18540328176241    3.97307188044646    9.66432827216578
H        19.20095928330466    3.21949572319926    8.41443851226954
H        20.29965633339978    2.23370914207032    9.39316919261879
C        12.84941267310609    6.87137888563726   13.57855329701364
H        11.90105343127245    6.35704009503715   13.54196618352974
C        13.29011475047047    7.50032233058100   14.72696398096254
H        12.70187440217545    7.50457231730416   15.62987661106268
C        14.53326098983056    8.13744937783656   14.70940707527609
C        15.26719300764731    8.10649204953896   13.52325491769184
H        16.23428674534122    8.58219608960921   13.45920258206028
C        14.73467942083206    7.45382931157824   12.42777537960838
H        15.27385693609584    7.39997346423381   11.49337657949717
C        15.01927715441761    8.80458395220694   15.89479176589973
C        16.14322097741588    9.98433976418813   17.63833136820098
C        19.04048035580178   11.84023356783013   19.07579319339646
H        20.03698481483726   12.18029235691429   18.82744984242533
C        18.28022488461858   11.13570309457454   18.15727362583878
H        18.66617884618582   10.91060037122837   17.17419807858581
C        17.00255414436639   10.72278189372648   18.53491471592914
C        16.55647305894508   11.04117269861230   19.82003948276042
H        15.57380968633969   10.73399111821042   20.13763588520212
C        17.40766463184315   11.75091704293275   20.64942810754044
H        17.10794888797914   12.02166490923671   21.65289511508277

