85
CSD_code = CABKIA | q = 0 | S = 0 | Stoichiometry = C34H39BrO7P3Re | MND = 6
Re        6.39722618428221   15.00736412011358   18.77985320669653
Br        8.60357263948682   16.22126829867156   19.13537523753822
P         4.92284907918840   16.89686147105882   18.93629852248907
P         6.65913714104907   15.60650625778069   16.44818234151306
P         7.68163529449348   13.03748868018183   18.45675259407951
O         6.98084412906982   17.15290105902046   16.07787060789977
O         6.89007696035286   11.92320552890101   19.31584098678461
C         7.95541772615549   14.92489061876204   15.35582780328569
C         6.13478946155881   18.15136058572280   21.13929234261009
H         6.85263319251208   17.34443343933082   21.11677834480686
O         4.57462251852001   17.74380132299193   17.59582881274309
O         6.17818181736937   14.44424854005310   21.80654001598720
C         5.15029306332102   15.25476262438323   15.48753343807505
O         7.68125280349080   12.54732161596911   16.93651880775399
O         9.22921080204858   12.77985886213262   18.80620347503477
C         8.70043982071892   13.69442234811425   13.43332440876151
H         8.47226948711213   13.10993838239554   12.55300523855705
C         6.25774702318872   14.66286314597349   20.67698990851032
C         5.10810701000620   18.19212380410576   20.20752037313894
C         6.23462504608019   19.14944352384985   22.09370359782120
H         7.03466628393922   19.11874749537656   22.81759387772571
C         2.33784484320819   16.10448928477845   18.20675065379869
H         2.61279183929226   16.37676271333341   17.19836680557021
C         3.23731552480641   16.30695742648622   19.24499979294378
C         5.42236819441093   18.74690932032575   17.07475832687296
H         5.41284030092575   19.62919002880203   17.72698255834165
H         4.99821961863304   19.01209584565485   16.10140758350915
C         9.27961908924399   15.20115190931749   15.68019759134056
H         9.51380526245219   15.79546381854086   16.55227078906243
C        10.30573655485249   14.72329737351108   14.88579473353215
H        11.33092886705440   14.94124764572493   15.14720164032545
C         0.76319515414508   15.18293260162490   19.76526557399579
H        -0.20225034948815   14.74249508182483   19.96719756228389
C         8.54209759616231   11.56729612581898   16.35183638802275
H         9.07312002559309   11.01166788276680   17.12782790666852
H         9.27687296850241   12.10040829067069   15.74087630495398
C         7.29367281759066   10.57222108294536   19.51835432853998
H         8.36312875945624   10.45756076119326   19.30674974862459
H         6.73092041919438    9.93760876501613   18.82453877078516
C         3.30603622741602   15.88951736869211   14.08987674865698
H         2.79008793380365   16.63904888311930   13.50642458656555
C         4.49195396113840   16.21006810728807   14.72793007648054
H         4.91251878313615   17.20022790802329   14.63108252093277
C         1.10020524551226   15.54681502463635   18.47232328953469
H         0.40039675018540   15.38675095361881   17.66482041839253
C         6.86002166240731   18.26923309819364   16.93252944465522
H         7.47224212713194   19.05781589972074   16.48503955642189
H         7.25291569152018   18.05196297684732   17.93451397786437
C         7.67087485202361   14.16535881719464   14.22900656989421
H         6.64594111694301   13.94440596803516   13.96745817101997
C        10.01826916665126   13.96996909285022   13.75938528317376
H        10.81858956758997   13.59805320560867   13.13579831600687
C         4.17800205067956   19.22779984592809   20.23367707009653
H         3.37344361841350   19.23714822443828   19.50967903169497
C         2.90570176786477   15.92564886994600   20.54018896430363
H         3.62816188974714   16.06391377921207   21.33376628539705
C         4.28426361953026   20.22171446471359   21.18673344108630
H         3.56356796654077   21.02635115195850   21.20995876012307
C         5.31362064705191   20.18264319513253   22.11610776915225
H         5.39351546312901   20.96135265124470   22.86035125922656
C         3.44954486055855   13.64723461343664   14.93434235090431
H         3.04651811877916   12.64799080877731   15.01142346854424
C         6.98828977478246   10.18482396808545   20.95622908100954
H         7.54715587046146   10.81654767224457   21.64231379134919
H         7.25452256453621    9.14467139260995   21.12633036374200
H         5.92884342837718   10.32268316933174   21.15331562695247
C         4.62874785923891   13.96762158871925   15.57794680262564
H         5.16493233671669   13.22337228340058   16.15409983801943
C         2.77975361123867   14.61360327284576   14.19936537915603
H         1.84938771644783   14.36917721409019   13.70764768488402
C         1.66701269070725   15.37114135243253   20.79918157122346
H         1.40757173894584   15.07748116177098   21.80564146844966
C         9.76432033719332   13.16049492965301   20.07979450341702
H        10.34277996067639   14.07716296641738   19.93611141693020
H         8.94842886356071   13.36649846651440   20.78103949858760
C        10.65771255065395   12.05078265663147   20.60533723283048
H        10.08390874736247   11.15033323710560   20.81253918816518
H        11.13423527074899   12.38205668423663   21.52350951614610
H        11.42648571008157   11.81660517360470   19.87294206076978
C         7.70620758887190   10.63522546010629   15.49232372914556
H         7.19108202197104   11.20729505544264   14.72511596485659
H         6.96416576800310   10.12287705222792   16.10033753078192
H         8.34870795584162    9.89882642020131   15.01710489809057
C         4.81092695084369   13.92235297812833   18.58470435611246
O         3.88720262469737   13.23757325237152   18.58564013545379

