76
CSD_code = CABKEW | q = 0 | S = 0 | Stoichiometry = C31H33BrO7P3Re | MND = 6
Re        0.65442300858505    8.48773116228185    9.77674024719352
Br       -1.08142981684879    6.68870242349951   10.25948092698557
C         1.94093252834195    9.83516915703560    9.29148429436118
O         2.73792854658045   10.59814727038841    8.94503484250885
C         0.88358453499387    7.67000568152651    8.03512214903055
O         1.01363638277566    7.17088731614324    7.00513876585032
P        -1.30657213162756    9.66949756715037    8.97313354253827
P         0.26006141446708    9.50942179536780   11.93372043661969
O        -2.75917715649276    9.39198951756830    9.61856781418744
C        -3.23190218035966    9.91533919818620   10.84064966531993
H        -4.25603020395335    9.54372711397326   10.93604448750710
H        -3.23828220749851   11.01282888780797   10.80148294804733
C        -2.41550784444110    9.46832798682972   12.04802005625944
H        -2.97311258420691    9.69270659266348   12.96356695428940
H        -2.24319038666695    8.38855955611436   11.99632920938498
O        -1.20536489287693   10.20753486895681   12.09907768211842
C         0.40750039461930    8.64422009568279   13.54562511748913
C         0.62668890492215    9.38315765959622   14.70312505642200
H         0.74460079293828   10.45621903668260   14.64096883680896
C         0.69663479690166    8.74635019267077   15.92779616340539
H         0.87133305036718    9.32449508069164   16.82403869218676
C         0.54505880293748    7.37075231467814   16.00687542656000
H         0.60321900346918    6.87593060512874   16.96552541487230
C         0.31579953553337    6.63426850844904   14.85760097343708
H         0.18866478926575    5.56306523132047   14.91285942279156
C         0.24484857864113    7.26796879345385   13.62902486605630
H         0.06489694451698    6.67772849932463   12.74250115258177
C        -1.69763532400452    9.11856205941342    7.29417803337501
C        -2.65023882339893    8.14056998087348    7.04555621936638
H        -3.22478021312287    7.73152073143279    7.86317695840839
C        -2.83838891490707    7.68775292843132    5.75105407804344
H        -3.57523268674378    6.92305796031525    5.55349860658209
C        -2.07684319267528    8.20156497079252    4.71526055621683
H        -2.22424938225733    7.84161766554014    3.70748546967249
C        -1.11335687344091    9.16633130540106    4.96869392350429
H        -0.51057943726164    9.55593408275908    4.16149093318037
C        -0.91623438171445    9.61952709801532    6.25815994661906
H        -0.15298671264622   10.35528423220517    6.48043002351085
C        -1.32956907204182   11.48940885889698    8.80457120128395
C        -0.29833812716504   12.27687144620584    9.28847847110823
H         0.56059614765144   11.80598572456467    9.74450557845056
C        -0.37333315683012   13.65529627775278    9.18618716958367
H         0.43366279021115   14.26454115201455    9.56580071818701
C        -1.48039243720036   14.24522041424365    8.60050889218367
H        -1.54020990735227   15.32072559936942    8.51955387258679
C        -2.51515012814235   13.45851308965258    8.11576553553827
H        -3.37725734067607   13.92086828016893    7.65726007871053
C        -2.44314512102642   12.08255777429608    8.21805817739450
H        -3.24212205541716   11.45663246352741    7.84239930773593
C         1.22694674607232   11.01965885241566   12.23501556201944
C         2.61226853898603   10.92255997578595   12.15954337079445
H         3.06036820927822    9.96008614954831   11.95924514599746
C         3.40088806498141   12.04395345651859   12.33361558405211
H         4.47628285626525   11.96196658097491   12.27264120197177
C         2.81107149231764   13.27437168991769   12.57564098960044
H         3.42618023650921   14.15297051977702   12.70427843499195
C         1.43198587437757   13.37650659543809   12.64645832328865
H         0.96891271562692   14.33517888081751   12.83202134365277
C         0.63884347569198   12.25547211938351   12.47681529387403
H        -0.43604054135693   12.33935984641013   12.52304230536612
P         2.28154262498779    7.02868622730746   10.75147209620769
O         1.99120292412808    5.55175677168696   11.26745645914867
C         1.67297539921583    4.47430155245731   10.39276116539788
H         1.82445131937912    3.56419764730332   10.97167858957081
H         2.32954573796734    4.47424782705751    9.52267972691884
H         0.63124535613811    4.53581201235901   10.07387437477022
O         2.81758484450723    7.68163468187556   12.11694960444820
C         3.73404369336632    6.99671912853825   12.96170506932072
H         4.27134220471022    7.75970578143411   13.52519504358200
H         4.43384881173444    6.40298876052014   12.37198167149775
H         3.19038580256451    6.34616032561158   13.64751310646820
O         3.62539256170841    6.66750748967652    9.91234417199077
C         4.26039035681752    7.56752561338640    9.02541952301275
H         5.03940092161876    6.99961261458626    8.51706646648086
H         4.70666178017037    8.40342563187768    9.56733558271151
H         3.55011973751104    7.95685705832806    8.29204089683484

