25
CSD_code = CABLAU | q = 0 | S = 0 | Stoichiometry = C12H8I2N2Pd | MND = 4
Pd        1.57274224847203    2.86845081262349    4.23358557850697
I         1.32989321232819    0.32970064655565    4.03776331907866
I         3.63463131298680    2.52797284518425    5.71038734409686
N         1.65236559938858    4.96322238521175    4.28130790790938
N        -0.10225296365822    3.30834580033437    3.05165874857676
C         2.51285424245882    5.76550475690216    4.88551812774082
H         3.30448853673478    5.30192713051123    5.46095508769406
C         2.43685518336366    7.15650052849829    4.80878326175580
H         3.17279241643680    7.74995905713006    5.32662716712260
C         1.43035910038577    7.74154624646140    4.07846346323312
H         1.34219469877111    8.81447437882579    3.99794418800370
C         0.50055726517480    6.91694946233258    3.42628820125117
C        -0.57517354220110    7.43101116638933    2.64892869181918
H        -0.66923565881699    8.50304020478880    2.56294041117166
C        -1.45454120681313    6.60336206228039    2.03645659845162
H        -2.27010476492428    6.99647424889736    1.44847486887787
C        -1.33433415996841    5.18949898112816    2.14724573992839
C        -2.22659096720605    4.29906701959560    1.53016809899143
H        -3.04534609826417    4.68478178183593    0.94171794121344
C        -2.03309619870661    2.94824302396588    1.69300050205118
H        -2.69377133657796    2.22756862772595    1.23905628540902
C        -0.95992733075418    2.49383727627305    2.46003084918490
H        -0.80412171882839    1.42988904645032    2.58829721065181
C        -0.27573191299627    4.64439773409698    2.90830046288838
C         0.65129404321345    5.51787477600258    3.55609994439116

