18
CSD_code = CABLIC | q = 0 | S = 0 | Stoichiometry = C7H8I2Pt | MND = 6
Pt        0.86298392538458    2.00830734285550    0.81196157452129
I         2.61520730918849    2.00829572783181   -1.06370583867598
I        -1.13101821463328    2.00829610616514   -0.80436612376846
C         2.15672703513597    1.31557907913952    2.40223305799423
H         2.96453805484320    0.66587816809697    2.09182009122546
C        -0.19901513494943    1.31555067374171    2.56529324662248
H        -1.04200857652836    0.66591398789341    2.36965028731205
C         1.03889668002883    0.88645391892605    3.35087544305310
H         1.06315292950824   -0.14192094332125    3.70043104484442
C         1.11144784287657    2.00829995581776    4.40035511790883
H         2.04469221132445    2.00830001024353    4.96359065147408
H         0.26440417661700    2.00829997326454    5.08644484293880
C         2.15672828030897    2.70102117431763    2.40223482886300
H         2.96454035980500    3.35072227683662    2.09182427259679
C        -0.19901614406575    2.70104940267191    2.56529531682569
H        -1.04201032737888    3.35068623129864    2.36965498534264
C         1.03889668238534    3.13014610132530    3.35087560208969
H         1.06315291014905    4.15852081289520    3.70043159883188

