29
CSD_code = CABQAY | q = 0 | S = 0 | Stoichiometry = C8H10Br2CdN6O2 | MND = 4
Cd        1.99382504175598    2.99526930933729    0.33018267582287
Br        0.48701726884105    3.53310639848326    2.31199177405277
Br        0.65192867184824    2.89807417016599   -1.77815963244537
O         3.87209180255236    4.45978380554882    1.47524896828596
O         4.00886717113783    1.67197343884726   -0.39151064820174
N         3.52578388072781    6.69252033369699    1.62171950588045
N         5.19549426205406    0.42265315698164    1.07468681191127
N         2.35023067164774    5.36645250364750    0.08688287898024
N         3.08464666078903    1.28727797107465    1.62096593913293
N         0.75799885031319    6.26040095913359   -1.26750335993065
N         2.19323432437399    1.00065563695924    3.69473830197917
C         3.26850562276497    5.43852137391604    1.06432526199947
C         4.06984781889470    1.16611887695741    0.71592527140359
C         1.66326069664549    6.42844195131264   -0.31230964018639
C         3.19221873628391    0.79309185742538    2.84522757220541
C         1.90706239811217    7.71723949072473    0.27128484585169
C         4.35093366963951    0.03466004237337    3.22566185413636
C         2.84626303159529    7.79620495007517    1.23982847753010
C         5.32632878615932   -0.12290346663542    2.30326846661592
H         4.20290334926881    6.72273208397257    2.37101775406749
H         5.92426859315334    0.34579433809175    0.37882443731087
H         0.58204886019825    5.31937175584467   -1.62135260902890
H         0.16900980398247    7.01854735333442   -1.56311607007959
H         1.34747730624045    8.57772764977391   -0.04975772956327
H         4.43037419365016   -0.38256045510873    4.21397144432936
H         3.09297587213971    8.72012607943940    1.74206189320395
H         6.23414960331897   -0.67455854834384    2.49991268478287
H         1.45035628680868    1.64748572796710    3.42675101707490
H         2.25999676526500    0.70139125507647    4.65143185285210

