73
CSD_code = CABRAB | q = 0 | S = 0 | Stoichiometry = C24H36N4O6S2Ti | MND = 6
Ti        1.92719524655665    6.46823992618492    9.50716087824263
S         1.01550959918365    3.95923941925090   10.48959206722331
S         4.54697094439063    6.29970007492439   10.35397070123375
O         0.22088890450284    6.78655180710672    9.08283706829049
O         2.61458079344551    7.87885272876410    8.75633814545147
O         0.64803543769177    5.09265183537055   11.31900343507767
O         1.78078890663241    2.91347225240078   11.13476934398061
O         4.33633361568231    5.71412284243380    9.04035760399493
O         5.23616662932539    7.57406266331102   10.38362240727603
N         1.24372421392868    8.18255199854883   11.13388734662370
N         3.13083493545986    6.31752197410727   11.06105279820536
N         2.09166263097840    5.92002960173368    7.03374811418332
N         1.71250202566552    4.57195330115201    9.21165633760893
C        -0.45529410969611    7.93302499519891    9.44805351156332
H        -1.54086776036872    7.80937150247693    9.27172791787303
H        -0.10580734047000    8.79691022447673    8.84719608118384
C        -0.19776582810709    8.20011803227932   10.94110343675498
H        -0.65497406717123    9.14845204042750   11.26970085962359
H        -0.63626823300965    7.36446090154727   11.49299392217601
C         1.66482057813340    7.65234995605332   12.42263963117052
H         1.00701253959014    6.82326197546402   12.68716141987144
H         1.63431247842432    8.42373742174911   13.21176055019200
C         3.07864729425944    7.08131049792654   12.28050008978457
H         3.83131265931331    7.88532018010026   12.24076586679339
H         3.30572795614025    6.44246822061025   13.14983058296320
C         1.82612806640930    9.50028242265783   10.91230431096862
H         1.54234675545775   10.19325690503796   11.72261466728294
H         1.48153632237444    9.90431616917352    9.96196215974809
H         2.91103894641544    9.41770042045552   10.86530824121793
C         2.75835019806015    8.21563150935884    7.43075738202171
H         3.59655936314816    8.92330757330445    7.30604691621646
H         1.83411771514558    8.70876717414473    7.06348938258881
C         3.03422404130637    6.94149285350071    6.60744999270212
H         2.96791866941455    7.14800569377406    5.52547321821543
H         4.04334723426247    6.61389614825691    6.86250578294431
C         2.61586054665796    4.56211185052606    6.99083230037127
H         3.67875408661075    4.59862713862564    7.22697286578742
H         2.47105723580664    4.10045408774007    5.99878187394979
C         1.92947263868867    3.72008017877535    8.07857940936956
H         0.96494332386299    3.32010306949956    7.71111751916131
H         2.56530664888995    2.86092668167232    8.34627648972377
C         0.83348823755716    6.01648711679320    6.31176924374150
H         0.97626375539719    5.80816816767107    5.23650448184695
H         0.41561239617360    7.01491334762365    6.42987661246985
H         0.12294910485689    5.30229111301479    6.72322246077275
C         5.54539655933985    5.12302721664961   11.27003237765835
C         4.96290452707923    3.91440888791652   11.60740944582957
H         3.93737269316870    3.72210546790166   11.32365377864605
C         5.70239242799222    2.98258236391748   12.31517098914497
H         5.25086892962045    2.03858453979153   12.58281801627951
C         7.01647553821136    3.24884458774713   12.68952677729779
C         7.57963453499158    4.47231495994931   12.34378189279492
H         8.59768227206994    4.69188482269131   12.63268438020021
C         6.84624294541835    5.40971913491974   11.63579106825237
H         7.26029471922101    6.36750406149947   11.36191121493950
C         7.81706562051871    2.22393937664974   13.43545310392383
H         8.58867245820126    2.69576869670134   14.03887558756472
H         8.30479384811884    1.55027333395467   12.73041566254311
H         7.17669309011778    1.62726728778817   14.08035337422713
C        -0.52638232560204    3.21883306884062    9.92819618999427
C        -1.39697069723359    4.03258122515158    9.22382088587718
H        -1.10521916827510    5.06174185570668    9.05930291414268
C        -2.59009558540806    3.50842114558416    8.75991544246053
H        -3.27754107316963    4.13415226469850    8.20833702702013
C        -2.92149761116562    2.17569511263015    8.99583875608849
C        -2.03152821094547    1.37651348797144    9.70332493076659
H        -2.27825861654745    0.34148598597996    9.89136736428322
C        -0.83279620252704    1.89434065298114   10.16786530314728
H        -0.12687472164376    1.29131601763839   10.71684850876194
C        -4.22779991313778    1.62665807525165    8.50719376555373
H        -4.21769849146666    0.53994045089429    8.50332177685451
H        -4.44405771507423    1.98226661819505    7.50206912614417
H        -5.03649516885046    1.95767330519370    9.15874491115903

