63
CSD_code = CABVOS | q = 0 | S = 0 | Stoichiometry = C32H20N10Ni | MND = 4
Ni        5.03817511633959    4.15303898534410   10.68307602708191
N         6.53772616617346    4.50693920233092    9.62979081817107
H         7.17858022211165    3.74279011886123    9.41191507496976
N         6.27477598496492    6.79663637910981    9.15435636006696
N         4.55072094937337    5.94701540519072   10.51221569517213
H         3.69174756538700    6.26953890204254   10.95968563283755
N        12.60628521119740    5.92441166395165    5.32445102821331
N         2.54715336748507   13.21619437005236    9.77445359020394
C         6.91679620767809    5.63659267865438    9.07986397217174
C         8.16526869587808    5.68914736818929    8.28174955838154
C         9.26491577399551    4.89248949136379    8.59677839083026
H         9.23999824455722    4.23971687121765    9.45845893255456
C        10.41692103702776    4.95748414049186    7.83940249754887
H        11.27251230447152    4.34673018057143    8.08723197338175
C        10.47929762762288    5.82169073326703    6.74603395661141
C         9.38624886917776    6.63101824037586    6.43117914826255
H         9.44596303375053    7.30379607114171    5.58866251625816
C         8.24425416047832    6.56518554594198    7.20068070132196
H         7.39285367201202    7.18758050897664    6.97853361946020
C         5.15546075431233    6.91169741297928    9.85957878320517
C         4.58512929132511    8.28037623151546    9.86445364435587
C         4.75301111311929    9.08998967105400    8.74250246587279
H         5.29983842952707    8.69723105015616    7.90088863461996
C         4.22820475271215   10.36437840894082    8.71018108677679
H         4.35105209647351   10.98993278897066    7.83862683252130
C         3.53294579486161   10.85365097807726    9.81750782855684
C         3.37741592861438   10.05758412439872   10.95251200193261
H         2.85254146384147   10.44866791721636   11.81162087585835
C         3.89835735243573    8.77955531540754   10.97000944610245
H         3.79594405772678    8.18394253128210   11.86665214550029
C        11.65437025449930    5.88069782267821    5.96122393231171
C         2.99048769877991   12.15954241049768    9.79344707211412
N         3.53883732049195    3.79921289549485   11.73632361965221
H         2.89810153114191    4.56346031671103   11.95422810332264
N         3.80144151246497    1.50950325335372   12.21197646356257
N         5.52541981389166    2.35901113001419   10.85388836926783
H         6.38427687391664    2.03637038527551   10.40627020563590
N        -2.52953599370764    2.38478312519297   16.04251437336965
N         7.53396672224155   -4.90801836392394   11.59093119003184
C         3.15964479657664    2.66968634174011   12.28643768028608
C         1.91113038872089    2.61764343608842   13.08450408200811
C         0.81157092517063    3.41415308720295   12.76872196682586
H         0.83672389923880    4.06639570630116   11.90667166083702
C        -0.34057508645867    3.34976170047181   13.52591576452926
H        -1.19599802576061    3.96050466615226   13.27758890283234
C        -0.40320141693448    2.48629799639244   14.61983587246161
C         0.68979823075951    1.67719068803813   14.93552472146340
H         0.62989958823480    1.00506651778104   15.77856620007359
C         1.83195182380307    1.74239464143571   14.16618447530757
H         2.68324932817367    1.12006203992099   14.38887567983973
C         4.92059603945765    1.39436521491314   11.50650895619421
C         5.49103341973510    0.02573468523597   11.50132504493206
C         5.32551585259364   -0.78339852525581   12.62395352281739
H         4.77985219312564   -0.39059792276467   13.46631097808976
C         5.85136130005268   -2.05738645110868   12.65606045785882
H         5.73054984324343   -2.68253331284320   13.52819793989140
C         6.54514224005733   -2.54671800407061   11.54783389597231
C         6.69786040314116   -1.75128061121506   10.41199746243858
H         7.22138864742713   -2.14253341507866    9.55214577798807
C         6.17600978526459   -0.47362964295733   10.39473736626928
H         6.27627474225818    0.12161392774423    9.49760927339554
C        -1.57829383521034    2.42780872441518   15.40464944704846
C         7.08915393897720   -3.85196775090277   11.57178630256727

