55
CSD_code = CABVIM | q = 0 | S = 0 | Stoichiometry = C24H16Cl4N10Ni | MND = 4
Ni       -0.00004244360648   -0.00002502216306    0.00001364316497
Cl        5.51146480506907   -2.53466174277540    5.21394824424690
Cl        3.61321213345689   -7.14426728240969    0.19105248459869
N         0.92924717957369   -0.21253762234040    1.60667857803733
H         0.82775356929171    0.49226335847599    2.33823503337206
N         2.07743874284272   -2.23115631695298    1.23387075251877
N         0.74370178480558   -1.60706419579118   -0.59921356710075
H         0.49486272630786   -1.95506878730732   -1.52606954188445
N         3.33886415807631   -1.32403524429944    5.91452581132803
N         3.25032330598782   -5.78560586194818   -1.97672378920608
C         1.69800315739331   -1.20537493337398    1.98434885069436
C         2.25221179409322   -1.23558856306585    3.36121516957422
C         3.49119755771896   -1.82587312518134    3.58257215421266
H         4.04054366644840   -2.26001388708734    2.76461562950302
C         3.98027020103512   -1.83171591038958    4.88227712266803
C         2.15350390414309   -0.78033630754071    5.70256371930090
H         1.66090206998884   -0.39060402758316    6.58277179623744
C         1.56420946343294   -0.70324987320303    4.45238427969449
H         0.58072149481927   -0.27105786214953    4.34449036682963
C         1.62371206210024   -2.37608904615783   -0.00450063960170
C         2.18680333430906   -3.55318621920226   -0.71257208651595
C         2.58965669105496   -4.66030423957042    0.02582357965533
H         2.49675026601929   -4.66057525982698    1.09850853990142
C         3.10927148203186   -5.74525437826431   -0.66780143237512
C         2.88176208141177   -4.72516951969089   -2.67325199303045
H         3.02941296645292   -4.80137612112571   -3.74173259757076
C         2.34299223545567   -3.58673087194042   -2.09896707995350
H         2.08636912367103   -2.74063119291490   -2.71855540439356
Cl       -5.51109446881659    2.53495809998052   -5.21423329464545
Cl       -3.61358390989424    7.14414269649468   -0.19079638885122
N        -0.92927814600317    0.21253650358389   -1.60667970962249
H        -0.82781485906176   -0.49227554072408   -2.33822983646625
N        -2.07732864424624    2.23124450050788   -1.23392602773968
N        -0.74381167924601    1.60699214650654    0.59925864511052
H        -0.49506664816113    1.95492377642007    1.52616618174436
N        -3.33848501120128    1.32427444355851   -5.91468838661600
N        -3.25071237296671    5.78529761502406    1.97689510002680
C        -1.69789424539685    1.20546286622910   -1.98440340889894
C        -2.25200579082350    1.23574155704793   -3.36130811109643
C        -3.49096261063766    1.82606252531160   -3.58273349991162
H        -4.04034044317580    2.26022054039778   -2.76480539626214
C        -3.97995594621707    1.83193369597966   -4.88246859017028
C        -2.15314714050301    0.78055238329849   -5.70266195277724
H        -1.66052197262472    0.39078082072619   -6.58284038197342
C        -1.56394584590370    0.70340568024536   -4.45244154539920
H        -0.58048942714303    0.27115795161238   -4.34448039625925
C        -1.62375700000698    2.37606808683028    0.00451486162203
C        -2.18698901173814    3.55309023593096    0.71264504374997
C        -2.58967278885649    4.66030554091977   -0.02567510913142
H        -2.49679123539006    4.66065201496949   -1.09837863084071
C        -3.10931042831883    5.74522313326022    0.66801286342013
C        -2.88240085304545    4.72474567291247    2.67330870429095
H        -3.02972170715350    4.80101544717683    3.74186035101737
C        -2.34343396671641    3.58642506781386    2.09900672591698
H        -2.08660336013628    2.74035259376236    2.71857456585422

