83
CSD_code = CABXIO | q = 0 | S = 0 | Stoichiometry = C30H46FeO2P4 | MND = 6
Fe        0.00045328050815    0.00003583187640    0.00027699139191
P        -0.41957662603672    0.75806258546409    1.95822897504680
P        -1.90167313352430    0.77248803581397   -0.57029824715687
O         4.13780430470344    7.43640582193034   -1.74832744826063
C         0.96396343669822    1.57215162190386   -0.43737369009440
C         1.56181715295194    2.60063581749980   -0.67852615363741
C         2.23706086586824    3.80935965606603   -0.96353691073855
C         1.67938561339273    5.04097009943232   -0.60318201487415
C         2.33575412696136    6.21800334177766   -0.87853645722203
C         3.57272897464016    6.20630394165966   -1.52403396219420
C         4.13716978079191    4.99001177867952   -1.88742942437818
C         3.47327954121935    3.80936722949088   -1.60827059426289
C         5.38123950986401    7.48803592727374   -2.39556019523309
C         0.49469013381264    2.14939286445922    2.72460808901207
C        -0.48379461999265   -0.41488878466013    3.36168802574500
C        -2.12050337859357    1.49092793125293    2.02800733597673
C        -2.95767291960011    0.85309338398489    0.93686611188269
C        -2.00879654976874    2.49623236345005   -1.17784995663727
C        -3.07717125947341   -0.06043884265597   -1.69471076656779
H         0.72013773380821    5.06261382170275   -0.10330499865525
H         1.91119464699237    7.17144208808952   -0.60287742417140
H         5.09301629290087    4.94635472929021   -2.38796242866539
H         3.92194123435262    2.86710593845495   -1.89520389030946
H         6.15825718645162    6.96957161897112   -1.82240149724866
H         5.33124611012324    7.06099545228451   -3.40363292504360
H         5.63516259037476    8.54492484887513   -2.46725754509800
H         1.45372327278580    1.81233686744306    3.10999981276752
H         0.67019608602390    2.90056455451157    1.95520863093151
H        -0.09855562661060    2.56917582554147    3.53846196095820
H        -0.80813101687458    0.08971917788871    4.27253596054034
H        -1.17115172225351   -1.21804318922579    3.09827084022084
H         0.50816281115580   -0.84183927507284    3.50943205578131
H        -2.55387760030253    1.35864514037505    3.02478773923615
H        -2.01165408674297    2.56375370637048    1.83314486191426
H        -3.88572898080185    1.40193645177233    0.74350812735511
H        -3.19489858047569   -0.18516177333974    1.19074925855524
H        -1.45589029824437    3.13382302602806   -0.48935208219841
H        -1.51540550903198    2.55488260022605   -2.14718331664635
H        -3.04582938295669    2.82353361752416   -1.26269439014342
H        -4.06265952808758    0.39685686678217   -1.59198793380553
H        -2.74278302638375    0.03329099092767   -2.72766136519982
H        -3.12269919756950   -1.11224133160919   -1.41347159358938
P         0.41951612987963   -0.75873511003162   -1.95788015869322
P         1.90208910455579   -0.77295842851369    0.57002071077825
O        -4.13887451472282   -7.43569592707613    1.74893076200728
C        -0.96397282694819   -1.57203275164549    0.43635083869102
C        -1.56176774369382   -2.60064849119506    0.67770983284535
C        -2.23682357873303   -3.80930160688260    0.96378052559911
C        -1.67968346059595   -5.04116211821180    0.60339227781207
C        -2.33644999524158   -6.21797381471929    0.87893238328644
C        -3.57340823164935   -6.20579449899858    1.52443302350614
C        -4.13745211704804   -4.98924647192052    1.88762500197631
C        -3.47316735613547   -3.80886505062286    1.60829932152044
C        -5.38223715361410   -7.48684860571787    2.39634664935830
C        -0.49451112098846   -2.14984424618512   -2.72491096755189
C         0.48410696554868    0.41425258166080   -3.36138597379984
C         2.12076006423171   -1.49090421957981   -2.02827761619437
C         2.95809095993684   -0.85331164870253   -0.93713053781749
C         2.00925965046182   -2.49670245368227    1.17749807978766
C         3.07746452747809    0.06008117948593    1.69447294552867
H        -0.72054608391202   -5.06319731471868    0.10331667404605
H        -1.91216846373252   -7.17160953124203    0.60348578274554
H        -5.09323569694214   -4.94519382505449    2.38824827562270
H        -3.92161318480944   -2.86641681215123    1.89492989214031
H        -6.15917813623972   -6.96829112722297    1.82317164271229
H        -5.33200779363695   -7.05958284212167    3.40430972910518
H        -5.63646370512301   -8.54364923005142    2.46831010828815
H        -1.45357084789570   -1.81282146293106   -3.11028918503716
H        -0.66991199303968   -2.90100206291213   -1.95550335413532
H         0.09885651686761   -2.56948641923409   -3.53876434865101
H         0.80850088637345   -0.09020193445342   -4.27229711830788
H         1.17138662661095    1.21754243692411   -3.09810981833804
H        -0.50779827934443    0.84121638560602   -3.50934516152721
H         2.55408976579455   -1.35852777456418   -3.02509622990937
H         2.01195740847231   -2.56372939883677   -1.83354711328252
H         3.88618830031948   -1.40214278102470   -0.74388575439544
H         3.19521778746801    0.18499196127033   -1.19090152845425
H         1.45625921671753   -3.13421775163884    0.48901162708307
H         1.51584606918512   -2.55529902280207    2.14681258022566
H         3.04628837826807   -2.82405493165954    1.26235362795738
H         4.06294408523519   -0.39721125119970    1.59173269515668
H         2.74308791074084   -0.03372474364780    2.72741991813114
H         3.12300028680919    1.11190875768825    1.41328239483764

