47
CSD_code = CACKID | q = 0 | S = 0 | Stoichiometry = C21H17MoN3O5 | MND = 6
Mo       -0.74894858659423    4.02665199611501    4.20588461220418
O         1.94564919610517    3.88105713592917    4.40624454637245
H         1.50076963596919    3.38541747732995    5.11943899913293
O        -0.34829219544290    5.34620521305343    5.44948285596311
C        -0.56338570957451    6.63701811387740    5.53817876861070
N         0.10852490428609    5.62951630725656    2.92547907123524
C         2.64237437021195    2.93289811977313    3.61389681732752
H         1.98797341597426    2.11240409622731    3.30242364668274
H         3.49093244432759    2.52530401548028    4.17389941730831
H         3.01627864013204    3.45131624518631    2.72959665144202
O        -0.39919217734800    3.12590077979049    2.66305417676608
N         1.04868401588349    7.49342914591926    2.30909781639043
C        -1.10148058843773    7.19069659043508    6.71007463492585
H        -1.34535856620753    6.51393754973688    7.51617710327203
N         1.26400738418448    6.62535570155073    1.30856366772833
O        -0.36006577019778    2.79446553180494    5.24007612819791
C        -1.33798439208637    8.54393986764371    6.80141519369447
H        -1.76617661869133    8.95269882981844    7.70425429004608
O        -2.35759709569573    4.34765861166758    4.00223955161858
C        -1.04524712519263    9.38742208270729    5.73356734724952
H        -1.25587866598607   10.44307895691424    5.80332980686408
C        -0.49632969213079    8.87342861483137    4.57984061344302
H        -0.29627519732737    9.52679614444928    3.74398326526053
C        -0.22665555408216    7.50532046047816    4.47060500642841
C         0.32596080020331    6.89914753478365    3.28350589189481
C         1.66017518354694    8.76070065420770    2.26434332866850
C         1.64306015179973    9.46962363229017    1.07084842499747
H         1.14410031417600    9.04644725923149    0.21343289683715
C         2.26808361428923   10.70207295256700    1.00412223131936
H         2.25193901498024   11.26007337442057    0.08052895962405
C         2.91082366833141   11.21790271235865    2.11716850568216
H         3.39523380469230   12.18075055313188    2.06276496364724
C         2.94231781536585   10.49433457650246    3.29912318487336
H         3.45769481451930   10.88771810443724    4.16179473814339
C         2.32492546601148    9.25988562385426    3.37850978275113
H         2.35478178167392    8.68526497797150    4.29163993371299
C         0.69339632582389    5.50590849661818    1.69368167815475
C         0.65256929988370    4.30314855261642    0.89568673281500
C         1.17572365306455    4.28682177175971   -0.39853816753391
H         1.62798996505549    5.19034127838963   -0.77700823246555
C         1.10728662744493    3.14412558682955   -1.16598619349743
H         1.51219117749430    3.13859544400451   -2.16600300504980
C         0.50855448071787    1.99912179170837   -0.65054896294521
H         0.44852267305934    1.10660650384040   -1.25537688871134
C        -0.00748092781530    1.99023601479407    0.62758448739848
H        -0.47453651825898    1.10933344064259    1.04447406391584
C         0.05616074185676    3.13882157508858    1.43004765760297

