70
CSD_code = CACPIF | q = 1 | S = 0 | Stoichiometry = C37H20AuF10P2(1+) | MND = 4
Au        3.36225427260948    5.01325935479931    6.61681681636216
P         4.81354379702115    6.44593855813586    7.76419159773149
C         4.67304862841984    5.01325413170820    8.72087519024975
C         3.66414671309910    7.76760962567499    9.88887965271396
C         3.21598570731715    8.90437479320460   10.53266745426395
C         3.40744568710696   10.15345527799358    9.95757576452014
C         4.05812185823185   10.27904662544474    8.73782849054694
C         4.51944707871871    9.15409290582842    8.08195629226846
C         4.32876766943934    7.90245598019177    8.67062873686760
C         6.28079996409466    6.61109409542716    5.36079227781080
C         7.46199241505734    6.83107069375812    4.67333131679400
C         8.60506161931995    7.21746548292638    5.35491419449948
C         8.57842690588194    7.39518678390248    6.73083303058351
C         7.40700912909732    7.18543337966653    7.43283173131507
C         6.26289404495072    6.79391503224022    6.73803350531499
C         2.43978946519259    7.06170989634536    4.51789286030498
C         1.73549632952183    8.18347651220584    4.08395563536705
C         0.94006262167210    8.88480918116881    4.98709702026531
C         0.85720531495461    8.45655579091483    6.31116181938490
C         1.56589892360361    7.32606404327327    6.69774010815489
C         2.36363613640060    6.60410692146898    5.82251609501377
F         3.23613978959183    6.42436211096897    3.65096573542338
F         1.83795072265780    8.59255076263332    2.82377190953983
F         0.27903972548844    9.96629774008076    4.59488147932032
F         0.12714121265106    9.13341347849011    7.19407464915435
F         1.50521824260950    6.90977895477365    7.97541254621343
H         3.50901529231850    6.78537174112987   10.31064032459861
H         2.70645294193077    8.81788247180402   11.47970553614316
H         3.04069178961201   11.03527143718639   10.45955900733428
H         4.19824710640987   11.25368629228229    8.29641205635700
H         5.02417766043319    9.23344558492350    7.12742411591038
H         5.38553360618780    6.32028226229748    4.83060478228734
H         7.48362338700705    6.70449136453545    3.60215057445223
H         9.52163547626079    7.38734911213944    4.81176191538313
H         9.47020299170931    7.69833933013726    7.25752460346838
H         7.36445506576045    7.32025502180243    8.50677213984113
P         4.81355125787849    3.58058132902866    7.76418546894324
C         2.36366028788641    3.42234350686977    5.82260469177164
C         4.32875029862037    2.12405798667772    8.67059460861286
C         6.26286787401486    3.23261608642238    6.73797978035889
C         2.43986395609509    2.96467129601267    4.51800778826436
C         1.56589924146124    2.70042253775526    6.69783785439333
C         3.66414427886773    2.25892113006329    9.88885257827071
C         4.51936955695810    0.87242012149582    8.08190545552879
C         6.28083698045866    3.41568272321810    5.36077282500147
C         7.40692657754617    2.84087684058550    7.43274952942403
C         1.73560508551479    1.84287260505362    4.08409990845473
F         3.23622858176930    3.60199505285635    3.65107504336842
C         0.85723683465088    1.56989916914963    6.31128690750938
F         1.50516097483810    3.11676201404279    7.97548740445216
C         3.21594626987667    1.12216933417218   10.53263811051984
H         3.50907143217969    3.24116127655127   10.31062672003893
C         4.05800793572520   -0.25252031046268    8.73777582433546
H         5.02408266443265    0.79305479198612    7.12736514154917
C         7.46203842548501    3.19572756199588    4.67331737413204
H         5.38562051678224    3.70666717266986    4.83059765934924
C         8.57835733722781    2.63116355557406    6.73076147323654
H         7.36431843959963    2.70587622481683    8.50666630518760
C         0.94014935765346    1.14157479844368    4.98724958263208
F         1.83811579416771    1.43373628817078    2.82394124391190
F         0.12714925291052    0.89307388862682    7.19420687291538
C         3.40735977983669   -0.12691551028710    9.95753673460811
H         2.70643016000408    1.20867539066533   11.47968352400914
H         4.19807944253446   -1.22716093534918    8.29634619093690
C         8.60505546334772    2.80912682933755    5.35487417627819
H         7.48372072076455    3.32249914482853    3.60216074801680
H         9.47008384100213    2.32783366773172    7.25742978777322
F         0.27915822180061    0.06005363434818    4.59506990522383
H         3.04056469764359   -1.00871920543095   10.45950930555692
H         9.52162916812708    2.63924727092626    4.81172250968136

