73
CSD_code = CACTAC | q = 0 | S = 0 | Stoichiometry = C31H35Cl3N3Rh | MND = 6
Rh        3.98569247786423    1.02605595141109   14.37692199218071
Cl        2.85268080573875   -0.41089574548719   12.92927929471782
Cl        2.43404718109704    0.76617289117360   16.01431242146126
Cl        5.24105475625847    2.48874948165347   15.69021391598901
N         5.35910129794729   -0.41698546436974   14.99577527095346
N         5.28004377774483    1.24872564906760   13.03513441525326
N         3.06445838595677    2.54790097904265   13.26122173597126
C         5.38401572975526   -1.31548077590814   15.96452926326767
C         6.58071005578755   -1.66538350204516   16.63063503971448
C         7.78863813789604   -1.16836784968096   16.21308606277900
C         7.77684629346461   -0.40205074647875   15.05223424016589
C         6.57106616177568   -0.04560520873564   14.47294308459867
C         6.49114337378647    0.72689094820456   13.23507035815535
C         7.48013201546910    0.89545575625059   12.27185424008658
C         7.16714455391013    1.59498843140674   11.11523194995944
C         5.89484476928647    2.11861801037623   10.93445441382844
C         4.95133064298558    1.93278749256334   11.93882193814001
C         3.59246285282051    2.46793863862326   11.99917421934206
C         2.90369868271432    2.87895035645087   10.87098457625316
C         1.61488496032674    3.38865899193004   10.99327476815387
C         1.16052670678882    3.60445019760704   12.26888211866491
C         1.93877544589490    3.22781261305739   13.38703239640105
C         4.28815807020538   -2.13550588611304   16.60659140842509
C         4.09106834836011   -1.42724890326384   17.97172830092115
C         5.39493922466889   -1.72834672214047   18.73221393158757
C         6.20229995293921   -2.59222224080584   17.73692318540115
C         5.10199537916092   -3.40430283026452   17.02429281048489
C         5.63275134234602   -4.20534771426369   15.83448654294036
C         4.36080136386478   -4.37365744683943   17.93876134079024
C         3.04305761625452   -2.42225813214941   15.79798944814329
C        -0.09164490946195    4.21363182218374   12.80481226693373
C        -0.84664774306533    3.05197142913000   13.49054572264107
C         0.02048860261865    2.73472417218918   14.72213990991399
C         1.20190991519987    3.73166369790727   14.60623948565538
C         0.49429975575344    4.98909157552836   14.00217258166387
C        -0.56042127501966    5.62868521449948   14.89854299269681
C         1.46733872108467    6.08919463309639   13.57547880737882
C         2.00553178989685    3.99662018275422   15.85955206784460
H         8.70990794809517   -1.39281983359272   16.72823615366413
H         8.69765652873786   -0.04761853681567   14.61889094620221
H         8.46460908968948    0.48073739602874   12.41303848288465
H         7.91756757301533    1.73293721685698   10.35209714187837
H         5.64906384513690    2.67084719929497   10.04233499614947
H         3.35710691221881    2.75811448502062    9.90077400701236
H         1.02461082728366    3.63686477303662   10.12467398557515
H         7.02457566830498   -3.14913546047538   18.18108328898808
H        -0.68173224639549    4.77783593051792   12.08577588108079
H         3.92659999440686   -0.36150908260321   17.82595812781033
H         3.21145575495279   -1.82587846003415   18.47250754141002
H         5.93929585865523   -0.81878976830774   18.98546160268243
H         5.21565974336608   -2.27995734116099   19.65370593251589
H        -1.85313365494666    3.36362397449818   13.76520157721983
H        -0.93077610762539    2.19656122961087   12.82047221297953
H        -0.50770098665556    2.89276167682999   15.65995350380873
H         0.38669602061207    1.71001284439943   14.72405113030903
H         4.81225980925568   -4.70751520587624   15.32805683203203
H         6.14371972358287   -3.57661156561452   15.10899111314266
H         6.33253154087275   -4.96395966194575   16.18137992847115
H         3.87125662022950   -3.87983427630569   18.76974021709248
H         3.60652213947663   -4.91578637163628   17.37367526301286
H         5.06555471015846   -5.10005767956394   18.33994842971913
H         2.44784233551198   -1.52647620512274   15.66277757792490
H         3.30736039979814   -2.80843248115212   14.81631841886553
H         2.43149824776219   -3.15580426387748   16.31748309411199
H        -0.08147594632536    6.14872291138397   15.72462331510438
H        -1.12506807293478    6.36081269269712   14.32366094659965
H        -1.25775012078620    4.90873720843247   15.31023202181118
H         1.89369809342349    6.57020423960155   14.45219972579096
H         2.28420815683416    5.70463848772259   12.96915455480983
H         0.93981829226529    6.84562592943261   12.99667159104177
H         2.35779674456052    3.07206402808189   16.30253987384330
H         2.86927218964995    4.61736817763295   15.63220995958088
H         1.38376714773841    4.50453584544135   16.59268210539852

