59
CSD_code = CACTUY | q = 0 | S = 0 | Stoichiometry = C26H22N4NiO4S2 | MND = 4
Ni        0.00003475708858   -0.00002830677368   -0.00001390474824
S         3.08063693020594    3.80271329359954   -0.29867052987764
O         0.77153990616489    0.12002071303328    1.68954462792310
O         4.24976306632906    1.96425836288733    6.61648347581747
N         1.07291532963842    1.46987525039988   -0.36333316547055
N         1.81643931247560    1.86653860204764    0.69917520214142
C         1.60001406943792    1.10076412211454    1.74806179015851
C         2.31220819156633    1.36355765500648    3.00061797265927
C         2.11940345001974    0.51581766868733    4.09390235373783
H         1.44649447914349   -0.32148861532807    3.99200081663287
C         2.77780698629816    0.74287570514843    5.27855799566102
H         2.63984139345559    0.09579496206430    6.13042100392373
C         3.64994546373711    1.82847008559379    5.40629386386517
C         5.14395606380652    3.03327818006873    6.81429736437996
H         5.99696699837128    2.97507166625560    6.13093173833105
H         5.49720491772232    2.93532701893599    7.83961565141794
H         4.64619761217256    4.00071950605494    6.69435719912498
C         3.84355876338863    2.67735085201795    4.31827206857291
H         4.50897897521802    3.52332043128240    4.38789599454090
C         3.18015264576013    2.44345387589354    3.12968100459446
H         3.32852059546185    3.09877643323000    2.28745132881449
C         1.21728564266675    2.14550843352535   -1.46789266457111
H         0.62537953600715    1.83503205412987   -2.31923378671005
C         2.09476169867253    3.24654994180958   -1.61501647228207
C         3.74505549844197    5.03529057192533   -1.29209446008340
H         4.47585820765599    5.70879742115462   -0.88933250986835
C         3.24191880304031    5.02320162106485   -2.56080779015403
H         3.53494544143808    5.71670339311427   -3.32915651884249
C         2.30020861244970    4.00492325434377   -2.75013612409464
H         1.78475031682406    3.82173034200812   -3.67592597759497
S        -3.08053892278909   -3.80279444759799    0.29863274134120
O        -0.77148785234365   -0.12006259522001   -1.68956536681416
O        -4.24992560330294   -1.96412415336248   -6.61641900968406
N        -1.07284177751335   -1.46993536926663    0.36330360452004
N        -1.81638931705493   -1.86657910916138   -0.69919562995557
C        -1.59997946856042   -1.10079164576688   -1.74807594063309
C        -2.31221513505655   -1.36355060666426   -3.00061575531926
C        -2.11942853771593   -0.51579397916589   -4.09389044276632
H        -1.44649549513004    0.32149388605096   -3.99199648166028
C        -2.77788246560949   -0.74281074528005   -5.27852599405705
H        -2.63993261401122   -0.09571576673434   -6.13038073676639
C        -3.65005536985075   -1.82837878692942   -5.40625067729911
C        -5.14416384328561   -3.03310913804369   -6.81421679161035
H        -5.99714208852157   -2.97488871172487   -6.13081154653983
H        -5.49745520167424   -2.93512302419727   -7.83951707567251
H        -4.64643309980048   -4.00057017175253   -6.69432061841756
C        -3.84364819866256   -2.67727796798776   -4.31823960226092
H        -4.50909288345880   -3.52322892634051   -4.38785582460722
C        -3.18019109312839   -2.44342269527002   -3.12966881148719
H        -3.32854478608849   -3.09875835698981   -2.28744683942730
C        -1.21718241696909   -2.14559331358150    1.46785183649401
H        -0.62526232291897   -1.83512845297968    2.31918742655042
C        -2.09464411808231   -3.24664692517358    1.61497068371679
C        -3.74492125414141   -5.03540203135043    1.29204334160482
H        -4.47572334528477   -5.70890963702537    0.88928154039760
C        -3.24175994046513   -5.02333322598184    2.56074708974569
H        -3.53476254830923   -5.71685495355478    3.32908697221739
C        -2.30005916178241   -4.00504670202856    2.75007842365351
H        -1.78458480314842   -3.82186694221513    3.67586193673558

