38
CSD_code = CACVIL | q = 0 | S = 0 | Stoichiometry = C15H17CrNO4 | MND = 9
Cr        4.30396614583747    1.40834253771579    3.20893208816093
C         2.90678063155366    1.23562555723970    1.50793042226740
C         3.62289843162933    0.02004819087044    1.62365850435059
C         5.01889572803896    0.01289911302546    1.54504158763164
C         5.71623823316853    1.22583226684076    1.47255958961360
C         5.01422729536066    2.44062369930006    1.27646633097464
C         3.63269957560847    2.44732096094242    1.31628409693946
C         1.45732860966915    1.30415388007893    1.62648675028647
C        -0.51786748334769    0.05579173414005    1.92290145840088
C         1.12362911953586    4.02591605685980    4.88125795385661
C        -0.07106716450172    3.07144410442499    4.96690930526233
C         0.86610556225302    5.10252842796194    3.82322419686183
C         1.43882941301991    4.64386202425631    6.24537370389845
C         3.10472764921846    2.59106636650061    4.07582939507664
N         2.24214162275419    3.27499951375415    4.46376022192058
C         3.99623472852759    0.23891344381453    4.56724811401950
C         5.63103202650961    1.79494184276843    4.39703516096740
O         3.85440610414779   -0.48035209801619    5.46287123939997
O         6.46357707543981    1.95647130616613    5.18421418848167
O         0.88319812100569    0.08066567125065    1.72279453290092
O         0.81341507271807    2.33746120729085    1.64746533255023
H         3.07282221094752   -0.91174007810849    1.66963800671239
H         5.55871133477434   -0.92652840350606    1.55578863219400
H         6.79731979216036    1.22098323752735    1.39541285998982
H         5.56352630941034    3.35358583985698    1.08224455514009
H         3.06745337253226    3.35472852198587    1.13561446528925
H        -0.99646260890451    0.85981195393569    1.35932603860869
H        -0.74440538091940    0.17741985996910    2.98504928370392
H        -0.86613113497515   -0.91477005790400    1.57659593218339
H        -0.95052103250577    3.60677297963102    5.31491179635497
H        -0.27461056581799    2.66001074064210    3.98148057049009
H         0.14414986762192    2.25618816364009    5.65389636149598
H        -0.00892294579672    5.68758220375573    4.09301158793805
H         0.69215858368401    4.62812841782832    2.86012665346832
H         1.72296048992499    5.76711892204360    3.74057108674277
H         1.64796760135915    3.86303325041926    6.97253322083670
H         0.59182611085511    5.23078845033880    6.59056722176731
H         2.31016149750242    5.29043019075772    6.17518755326201

