43
CSD_code = CACWOS | q = 0 | S = 0 | Stoichiometry = C14H23O3P2Re | MND = 6
H         2.99189301200660   -0.65871374923170    2.58547787931138
H         3.37376800888785    0.36210426493441    1.17654204106153
H         1.80784216628928   -0.44578911079528    1.26726141073362
H         3.63285955746848    1.20032938372535    4.31572830890453
H         2.85461753627244    2.79029257045127    4.46620758214475
H         4.00797352363859    2.49218382298591    3.15461862415521
H         1.39393895091644   -0.07550625215528    4.51635857175033
H         0.01228565915529    0.08162273510877    3.39790253996036
H         0.32533870880387    1.34776616252956    4.58652318462259
H         4.67012581720375    3.57734147965912   -0.72808812891158
H         3.47446580975163    2.25864972527705   -0.80020501677528
H         4.39433401088580    2.54003822769723    0.68899530699542
H         3.16780144700481    5.40943212119917   -1.60497570441840
H         1.55040979656698    5.84487443612710   -0.98961858435135
H         1.76621611141875    4.32564801743074   -1.85140894989287
H         4.38518355658718    5.76114188280306    0.65980067401634
H         3.97777986631447    5.00497234285736    2.21426910745603
H         2.92814582680146    6.26535846515590    1.54019535522698
H         1.66011374516978    4.88265010319193    3.32738811874341
H         0.22765315580135    6.62871225298363    1.97718911010807
H        -2.38467695400625    6.14626229113282    2.32381450018293
H        -2.48148641063916    4.57052800197891    4.44776815007435
H        -0.03872508645248    3.73378445573196    5.00657271783934
Re        0.58649103525353    3.09227377699469    1.29327392243198
P         1.83475678656148    1.48513221839998    2.69245838538223
P         2.58436159927026    4.14815579076980    0.39729582981688
C         0.43013670958842    2.08220662302678   -0.34101010681956
O         0.38924952514374    1.48426288447794   -1.33193028559909
C        -0.35822968494735    4.87088886763439    0.82878878264921
O        -0.86146896337845    5.45767320804845   -0.07609017127509
C        -1.12130323731998    2.40488317019641    1.89320116133446
O        -2.14814759066418    2.01285533121033    2.23233470870556
C         2.58643998573568    0.03985508961299    1.85381425943476
C         3.22254596245316    2.04474836633770    3.76229133379164
C         0.79619120852397    0.62063438319928    3.92796684698514
C         3.92039805520195    3.02260567177286   -0.16428390723645
C         2.24527235125470    5.02633228369328   -1.16841198595223
C         3.56700435962949    5.41821984235257    1.29321713915771
C         0.58283520328596    4.84414847467019    3.22829235764007
C        -0.19680722771319    5.66770620161478    2.26088350130742
C        -1.55797312587098    5.66081712033521    2.80884525569462
C        -1.60751174910944    4.82905842915034    3.87830408723176
C        -0.29189901875191    4.35315863572638    4.16054208638973

