54
CSD_code = CACXEJ | q = 0 | S = 0 | Stoichiometry = C26H21MoO5P | MND = 6
Mo        3.31416264883265   15.42791688070413   15.47923319011282
P         5.08010845330219   14.14427104895858   14.42225909364661
O         5.27664484405084   17.04102438984271   17.26618969219795
O         3.08158634830027   13.18249312849452   17.61082078506628
O         1.19803260322063   13.96424400128517   13.74510021441936
O         3.44657672871397   17.49375211770717   13.16499836712592
O         0.99719296675373   17.01274684611611   16.78391730556746
C         4.58588380830014   16.42949129704959   16.59538657462096
C         3.17485200724490   14.02467060105398   16.84896426722033
C         1.99560058729098   14.47454551528267   14.37835727559198
C         3.42854638169408   16.75297129813869   14.03110199523570
C         1.85418776109251   16.43094652105495   16.30706634891516
C         4.42143468551234   13.15945215007409   13.05197398050637
C         3.63002868758529   12.05478752142621   13.36631144520022
C         3.00058171406921   11.34327110976147   12.36704789988262
C         3.12549391738886   11.72620999850787   11.03368917628869
C         3.89335875382276   12.84289230821711   10.73067227858237
C         4.53307804319213   13.55987994041829   11.72636633964542
C         2.41610629214418   10.95904751404083    9.96158761659560
C         6.52223182073332   14.97039093375561   13.68238851061442
C         7.46000258645157   14.23282065928479   12.95973533466762
C         8.56977666160646   14.85374623398676   12.42779126658628
C         8.78199862344873   16.21912164627359   12.60826702698186
C         7.85043686187895   16.94495491939811   13.33731950156129
C         6.73175131664310   16.32938636287532   13.87155796713768
C         9.99420668924273   16.87411567840400   12.02326466139661
C         5.96397460993950   12.91239009844534   15.43103619670339
C         6.33110628725150   13.29721650294946   16.71777954243610
C         7.04511152282714   12.43947457330243   17.52950387645692
C         7.41217116430848   11.17509085713922   17.07931064800991
C         7.05143533282170   10.79970967915078   15.79149505350848
C         6.34110424414745   11.65564523539245   14.97018179784042
C         8.16114159973749   10.23913040301395   17.97577166598802
H         3.51318011319500   11.76320882251630   14.40492737882412
H         2.39432050602556   10.48460159699343   12.61847990563563
H         3.98801589691625   13.16125471683550    9.70209288077655
H         5.11843206033865   14.43482901632768   11.47512967254704
H         2.53571967930841    9.88765059946514   10.11140947509892
H         1.34939825328226   11.18165365681343    9.99137114414667
H         2.79298506106714   11.22294417825203    8.97675460823457
H         7.30981133172363   13.17179060649516   12.81475287892451
H         9.28918863960224   14.27634838679696   11.86431146083359
H         7.99940790819160   18.00416607256438   13.49111775336195
H         6.01572189744007   16.91116045342663   14.43946624400207
H        10.89922843506494   16.39550403418079   12.39504138411068
H         9.98981883270276   16.77634767264761   10.93823472236884
H        10.02861174677142   17.93025723008297   12.27680853217555
H         6.05182304814674   14.28038334893116   17.07984461658760
H         7.32084828413173   12.74942641820074   18.52732860513003
H         7.33075966516720    9.82229416364571   15.42371405632212
H         6.06864504192036   11.33556236660436   13.97385532188937
H         8.92943082900481   10.77140424910742   18.53270106278761
H         7.47773021671587    9.79033095051625   18.69703811165421
H         8.62671599974620    9.43967348809033   17.40487328826896

