33
CSD_code = CACZOV | q = 1 | S = 0 | Stoichiometry = C7H18CoN4O3(1+) | MND = 6
Co        1.79549046517697    3.33691413015096   -2.76973403189496
O         2.04921944950437    4.51258879981225   -4.12769421269130
O         0.31059501051696    4.34746768065017   -2.95542351734538
O         0.33506531017438    5.91170173804403   -4.59278264721525
N         3.50668345436235    2.35124305106574   -2.72410116701659
N         2.67939386729258    4.68314035278430   -1.62622933535658
N         1.26425234658008    2.13178246125288   -1.24695106920460
N         1.21138012023345    2.07234622803318   -4.15660234285389
C         4.09964413398405    4.33048652032661   -1.41935743626465
C         4.51984827401261    3.40842968330224   -2.56303725488059
C         2.47286817095073    1.64059507546373   -0.56850111214594
C         3.55334469207551    1.36255687711369   -1.62516850748039
C         2.24852898602247    1.04432997416641   -4.35859032198172
C         3.59736463660858    1.69022244956096   -4.03936665568118
C         0.82663893618189    5.03061487822960   -3.96147197163686
H         4.73332035923502    5.22194406727267   -1.41482781345663
H         4.22080788511697    3.83174231703139   -0.45661633292036
H         5.51585981374009    2.98923734259770   -2.38578957880184
H         4.53922459735745    3.99293892957630   -3.48455867979511
H         2.27884672093324    0.72545059448415    0.00009257324513
H         2.80605418937017    2.39948430257432    0.13879511275245
H         3.38721842099575    0.36836659640869   -2.04022979380648
H         4.54004631518809    1.35807831904436   -1.15451060551152
H         2.24972887396284    0.66991403671016   -5.38664249413831
H         2.04872652742534    0.19949674051621   -3.69483686590180
H         3.79391689964798    2.45986874903682   -4.78748249260044
H         4.40829727491923    0.95556823650991   -4.06770246075109
H         2.24015459539834    4.97172676131669   -0.75145452483976
H         2.64032653907371    5.50652932211605   -2.23634728014430
H         0.71431974130889    1.34025279562776   -1.57831735950743
H         0.65712766855345    2.61835891778379   -0.58858098372826
H         1.19137521847990    2.68038104999762   -4.98329490503878
H         0.27993050561656    1.65764102143852   -4.10198393140560

