47
CSD_code = CADHOE | q = 1 | S = 0 | Stoichiometry = C12H26CoO2P2S4(1+) | MND = 6
Co        3.66021825532748    3.23080688839850    3.10424864618740
S         3.53158419074953    3.50095881718304    5.39271059001464
S         5.27576712002957    4.82546308705152    3.56634794515305
P         2.13321330094056    1.64496387157254    2.88536341427136
O         5.20862491944845    5.44698353615955    6.07559177435100
C         4.71685339174205    4.68315841453209    5.14829452927761
C         4.70907112505258    5.33837929486288    7.41454522503139
C         5.46529899370694    6.32587073036948    8.28017859530418
C         3.04235870917382    0.05753775080970    2.65954094966007
C         0.91964787063709    1.62901503831076    1.53089566141316
C         1.09807356621756    1.38849632444237    4.35619417052066
H         4.85327765517539    4.30763155292289    7.76018674870100
H         3.63423710535792    5.55334329291875    7.40591004466218
H         6.52812147837908    6.10137235750668    8.26850047104541
H         5.31819474357219    7.33710026099785    7.91206142839091
H         5.10051109570185    6.26363006672641    9.30064787960994
H         2.37716123417859   -0.77990009552455    2.88646583489102
H         3.33088905163676   -0.00063306009826    1.60572657985136
H         0.24550873739164    2.47823329576468    1.64029112175101
H         0.34826467764641    0.70225741090971    1.58885362933465
H         1.42556582408992    1.68728456030437    0.56851487591648
H         0.44936063739627    0.52685145474860    4.19889775155024
H         0.49471418972686    2.28273835843654    4.51173263151720
H         1.72267691665410    1.23557489753447    5.23463452167423
S         3.78891742669211    3.50103556802521    0.81580801741411
S         2.04457612667416    4.82538094625653    2.64213295541584
P         5.18725703399139    1.64501228432773    3.32313583972341
C         4.27815879949590    0.05760081354059    3.54920323362476
C         2.60352059498843    4.68311358924922    1.06019186460233
C         6.40097290193957    1.62920027782005    4.67746415921586
C         6.22226338785149    1.38842472008806    1.85223243914937
H         4.94337304405935   -0.77986278427645    3.32240386078672
H         3.98963648056810   -0.00040881736192    4.60302912042815
O         2.11176828211262    5.44694699732012    0.13289209814993
H         7.07502543509209    2.47847678240356    4.56799271346160
H         6.97243720593898    0.70249651141538    4.61944986179905
H         5.89515934469756    1.68742830774464    5.63990056169592
H         6.87093576335949    0.52674210385878    2.00950682475019
H         6.82563075993452    2.28264197739334    1.69657066432215
H         5.59758444948088    1.23548333618899    0.97385171661638
C         2.61147443856692    5.33845538472614   -1.20601550378344
C         1.85528658949256    6.32595443512863   -2.07167674428348
H         2.46736893515753    4.30771569871132   -1.55172540714135
H         3.68629691238001    5.55348380451660   -1.19724838159422
H         0.79247491226715    6.10139799542110   -2.06013868323388
H         2.00229221439763    7.33717304511638   -1.70348873817835
H         2.22019417091539    6.26378891552265   -3.09210749302221

