91
CSD_code = CADQEG | q = 0 | S = 0 | Stoichiometry = C24H56FeN2P4S4 | MND = 4
Fe        2.43904138798858   11.03787974380811    8.24977767813616
S         2.39988911246244    9.20681380928656    9.63435464177715
S         0.39520246002476   12.06329613808746    8.55323382970021
S         3.17566971697770   12.94946015141057    7.21387364839760
S         1.67009129103094    9.68893232766159    6.54362052483300
P         1.78861680100832   10.07414468237506   11.34082184668269
C         1.78249145578069    8.79119205213963   12.67782378889252
H         1.40958670917706    9.30110948927203   13.57347279859756
C         3.17905142937047    8.23333640690707   12.91125580625956
H         3.13389272844646    7.39750211707896   13.60790974911061
H         3.84916795878290    8.98343129057076   13.32594468653208
H         3.59283037327019    7.87421130314421   11.97019861337379
C         0.80939528612754    7.68758608072587   12.28821468437045
H         0.74310980473421    6.94085762659255   13.07794618157946
H         1.14651332161321    7.20037011206209   11.37426114072793
H        -0.18211531589681    8.10279211329829   12.11998569875350
C         3.07164652564330   11.33552117008743   11.86281610407113
H         4.03388197740420   10.81276158283490   11.91325407530782
C         2.71328533772211   11.92573155982690   13.21937469881366
H         3.34435088180405   12.78639769380620   13.43659917265528
H         2.84453883233130   11.19520253043195   14.01443321027807
H         1.67373161623855   12.24787757144248   13.21850552625920
C         3.14123005548939   12.40728449987035   10.78640412414747
H         3.85907827486761   13.18360388707407   11.04493007556557
H         2.16583320359872   12.87533293858020   10.64416304279094
H         3.46461557577425   11.97131993831456    9.82263225609953
N         0.32642252951707   10.75405485524005   11.39594132415833
P        -0.55654400797153   11.31817843176394   10.15190911623242
C        -1.79225495489743   10.03990966073742    9.59529590253432
H        -2.38857739173963   10.52858092645594    8.81642384120201
C        -2.67497359046851    9.60745280166081   10.75777119165367
H        -3.26708794095822    8.73882908252800   10.47341715731198
H        -3.35523288789603   10.40055744741227   11.06114301519559
H        -2.05738763592833    9.33965461187205   11.61345698651301
C        -1.04765929835902    8.86602990174708    8.97849968340054
H        -1.74933062832762    8.13977292684380    8.57200609821236
H        -0.43079398445870    8.37040673299193    9.72582693933249
H        -0.39406516602074    9.20318297679373    8.17352261975169
C        -1.55073337307864   12.69252731012709   10.90047368644386
H        -2.03085422936691   12.26687347291547   11.78852911167246
C        -0.60539060122536   13.80708425075487   11.32654441485712
H        -1.15843603888258   14.61198065363482   11.80812764439816
H        -0.09109186021095   14.21115594601133   10.45535574762870
H         0.13428532793073   13.42830594893290   12.02886322775271
C        -2.58746095558877   13.20609551262267    9.91204420279517
H        -3.07994646956245   14.09081848252918   10.31335224213760
H        -3.34956074541001   12.45868656569624    9.70282314241599
H        -2.09825092758961   13.47702686651409    8.97772949603212
P         4.32366264434837   12.14521496335894    5.77399878307573
C         5.14235854057400   13.52234826605973    4.84304197782969
H         5.72556161510477   13.03732789724859    4.05190757233956
C         6.04117020570992   14.34448100770125    5.75535857522201
H         6.41202874178231   15.21873095304152    5.22233223589771
H         6.89822551169373   13.77057044603900    6.10140819242813
H         5.47365827522893   14.68464299562354    6.62023298721589
C         4.06346732927367   14.38944958076858    4.20997449426945
H         4.51221275511774   15.18044752441192    3.61113719888221
H         3.44940531483027   14.84449858545271    4.98598883479463
H         3.42645734709942   13.78653086373049    3.56616214323164
C         5.71717550035756   11.19128005880279    6.58519301967645
H         6.22416932702697   11.88266908523325    7.26832804848886
C         6.68758664420871   10.67318901320719    5.53309379268440
H         7.38562576884910    9.96516073771019    5.97763959263352
H         7.25918358143887   11.48542150404262    5.08974508275846
H         6.13788644553784   10.16887997727877    4.74065962007708
C         5.10357340193771   10.05538177034636    7.38854899092474
H         5.86980911843550    9.45044415966880    7.86996876242758
H         4.50726431046455    9.40608483275097    6.74554403682385
H         4.45037762984610   10.45198728838927    8.18826594972170
N         3.63493884848404   11.21906437855215    4.64656396817488
P         2.23861895452066   10.39183139985176    4.75481954484816
C         0.84167225565282   11.36702063735414    4.00083679865407
H        -0.03335555950027   10.70878991810264    4.04688162114279
C         0.57624324798767   12.59586165903740    4.85660018305251
H        -0.28818865747161   13.14191569355409    4.48294631168861
H         1.43725529024319   13.26159759556864    4.84569891192194
H         0.38456927294587   12.31165820790870    5.89164030399768
C         1.16338326683370   11.73539585951464    2.55914945956835
H         0.43436144489135   12.45326378645972    2.18611308918407
H         1.14740090038477   10.86285145688550    1.90937078836643
H         2.15263505819326   12.18657882535926    2.50298849936253
C         2.49881505156152    8.93409828010537    3.63904084376364
H         2.83968872249693    9.34520779460090    2.68240877464663
C         3.59411085152907    8.05497262367209    4.22628708778108
H         3.79760921795609    7.21064760006887    3.56951688769057
H         3.28267906039453    7.67281001353623    5.19773495865319
H         4.51230735200353    8.62560994195590    4.34927334750518
C         1.20559244571026    8.15078784469415    3.46720365900863
H         1.39590019699357    7.23270580679799    2.91291331030857
H         0.45585276885451    8.72449157067220    2.92688677984243
H         0.80574802920023    7.88728341240170    4.44513058408782

