105
CSD_code = CADSOQ | q = 0 | S = 0 | Stoichiometry = C36H54F10N2P2Ti | MND = 4
Ti       -4.04825629031234   12.76258625741002   13.09268742110272
P        -7.02466591185277   14.13297611230501   13.59604837900462
P        -1.58733165817464   14.85377565648248   12.43507311380047
F        -2.40216889579765   10.63117890897324   13.17676594294653
F        -1.18381760208239    8.94463792044942   15.01554416821724
F        -1.49713164480771    9.44426276712153   17.69181356112765
F        -2.98595158948205   11.57430236791495   18.51298392282175
F        -4.16174077507605   13.21162015539576   16.65481759404789
F        -5.09444278328811   10.30644246207695   13.23460866627427
F        -6.04443190829106    8.27961104053928   11.60079927756515
F        -5.98854626628601    8.61994397183018    8.88221671926074
F        -5.01650252661442   10.93628441234326    7.82221208044707
F        -4.09269850515585   12.90983423719561    9.48077166226009
N        -5.61528717685385   13.48582860209806   13.56936405948588
N        -2.90390542096289   14.04425199407481   12.56394352212416
C        -8.13176699128196   13.16179301821441   14.84074917579248
C        -9.63418258277875   13.39421330362517   14.72347265812389
C        -7.79669230427415   11.67826181762370   14.68341763462180
C        -7.66469595144901   13.55213481406664   16.24363499357474
C        -6.88517689568287   15.97336078735907   14.15662395498770
C        -5.83284152088391   16.00850996845768   15.26708775932424
C        -6.28901733876605   16.73032517896802   12.97059608841899
C        -8.17337053105477   16.65888355281748   14.59855254131239
C        -7.79700421152330   14.06074228800056   11.82062968045512
C        -9.04510549773073   14.90717102578212   11.59104860945172
C        -6.69553042423041   14.44729145459550   10.82758156570580
C        -8.13159607693239   12.59118677742264   11.55995109824947
C        -0.69218264002399   14.93183365374713   14.15369030268159
C        -0.10284755152960   13.54256712965488   14.40289680408507
C        -1.77504443835020   15.14809636445042   15.21539141084996
C         0.41237072240121   15.97389569137006   14.29822568570219
C        -0.42018651037639   14.03532925465460   11.13156378869760
C         1.04055944454988   14.47292208515645   11.16704682672814
C        -1.00126726429037   14.34717775061915    9.75194607823279
C        -0.54170666878516   12.52178092554261   11.31023924829929
C        -2.01464331418797   16.64519303696283   11.86099723303855
C        -3.09417225094501   16.50925867546719   10.78287286170347
C        -0.86099581001711   17.50962971218260   11.36382575820608
C        -2.66764463922430   17.32256330773850   13.06621025664338
C        -3.31167027298761   11.93959492447213   14.88064955972019
C        -2.54540102838336   10.84105779638368   14.53103297722597
C        -1.92397347070350    9.98391953867497   15.42699806710510
C        -2.08155135456680   10.23940761106938   16.78698367328519
C        -2.84288720383617   11.32865671231317   17.20204898314528
C        -3.43609042690572   12.14669636556326   16.24523536373473
C        -4.54564671437871   11.63008956710802   11.39109428682529
C        -5.06209191451341   10.43589723281432   11.86459095768115
C        -5.54974948326012    9.40750133442268   11.07136901453286
C        -5.52493024784918    9.58187937290378    9.68989628011158
C        -5.02602734108071   10.76527736297084    9.15283116715475
C        -4.55406773349618   11.75413711596341   10.01045930380410
H       -10.04090924205299   12.97585908698527   13.80677624528294
H        -9.87909380599291   14.45169848681558   14.76398742422394
H       -10.13435310628952   12.90109506231269   15.55760017266638
H        -8.24088570294759   11.23257686424777   13.79991859009394
H        -8.16254436841669   11.12503873078974   15.54774996056423
H        -6.71213187023439   11.56235190843683   14.63668139225182
H        -7.99936343865890   14.54553188159190   16.52510612410419
H        -6.57975047982589   13.50165443300693   16.29939900847223
H        -8.07549578339034   12.85381436489708   16.97295588394379
H        -6.24018945024263   15.75775532891243   16.23974810311705
H        -5.40289150182651   17.00680008338157   15.34028497826452
H        -5.03534531388795   15.29937706931472   15.02549597611215
H        -7.02160434335662   16.90147084813333   12.18817715465029
H        -5.44491802783377   16.16725249270782   12.57401944902326
H        -5.93329454091461   17.70672982591651   13.29959316056612
H        -8.57272448813739   16.23080382617979   15.51311633451871
H        -8.93891924908552   16.60781156617330   13.82956866901792
H        -7.96268832033206   17.71088862737688   14.79391857479663
H        -9.83243287263210   14.66353273821504   12.29776537795476
H        -9.42249761348311   14.71304286530048   10.58653622748674
H        -8.83329045381162   15.97004746797781   11.66165282078704
H        -6.66875428991136   15.51464231971327   10.63482655810833
H        -6.86554580959270   13.95317798751703    9.87139583928164
H        -5.71879185160090   14.12687264031227   11.21397259787569
H        -9.00857099365080   12.26991185030253   12.11402942966655
H        -7.27808709056289   11.96798988920581   11.82875549761923
H        -8.34401162108340   12.44014663899293   10.50099442081447
H        -0.85762760327423   12.78300682384244   14.19822158589053
H         0.19870484394186   13.44911856031599   15.44696083212833
H         0.77747582157049   13.35668326075425   13.79495626489530
H        -2.69364239617347   14.62972146135045   14.91399793085490
H        -1.99662396140383   16.19820984214990   15.37307606783260
H        -1.44743229559608   14.74063527428632   16.17154323389645
H         1.17578831808080   15.86083645165614   13.53457938779367
H         0.88878570993211   15.84852389381117   15.27120810334494
H         0.02298601541822   16.98675564102899   14.25379533438991
H         1.55261563691689   14.12717908971260   12.06056793600957
H         1.13351420889517   15.55355717865677   11.10769656579827
H         1.55781670365018   14.04402666019085   10.30813759041175
H        -0.81187746075894   15.37276239513320    9.45176106637164
H        -2.07105275172863   14.15550668921339    9.74505262502923
H        -0.53666527661531   13.70163002415867    9.00645899932836
H        -0.00092037517614   12.15087405426534   12.17479094834207
H        -0.14273143044723   12.01382664529165   10.43272276276499
H        -1.59964224609823   12.25792795311121   11.40713405395839
H        -2.67539571590453   16.40248889999202    9.78834083782579
H        -3.73020342099815   17.39328334422208   10.77565849885002
H        -3.71448216257061   15.63632327428070   10.99962606913514
H        -0.43137728729704   17.12902484143819   10.44195737585952
H        -0.07091315423701   17.59229149872526   12.10424064095904
H        -1.23724390875083   18.51282838579924   11.16044156352691
H        -3.38379938585191   16.64110984357754   13.52179590680937
H        -3.19642279255105   18.21979204768091   12.74438330626411
H        -1.93204060886370   17.62962770527529   13.80347680075532

