85
CSD_code = CADXIO | q = 0 | S = 0 | Stoichiometry = C42H39CoOP2 | MND = 7
Co        0.23325358209211    6.93276278576823    3.18359936011798
P         2.37030368927089    6.88256279871750    3.88317870928336
P        -0.94777784786515    5.36296756735713    4.44535425358061
O        -1.76087022582272    8.42403245572396    1.74439709801905
C         0.78095999897129    5.79455005501396    1.51107921103076
C         0.16985394686615    7.01070168300975    1.19254621466795
C        -1.12720994543600    7.20020400391557    1.72796721421850
C        -0.89612149296260    9.45256754737406    2.19245309348223
C        -0.01337215920944    8.97515977492581    3.33317865213843
C        -0.56413565224899    8.36227080259099    4.45045947593803
C         3.54007586253574    7.22951996445258    2.51523079894192
C         3.33985559387025    8.38688271917104    1.76518543295257
C         4.15944931952949    8.68804938083616    0.69445265882545
C         5.18977548882312    7.82883254770956    0.34809406229184
C         5.39174165633269    6.67262904072561    1.08128174338538
C         4.57405097976901    6.37210370888424    2.15742024582868
C         2.93674063980173    8.09647551892307    5.13299109463452
C         3.85235858452497    9.11363579410705    4.89050499189092
C         4.17355731173847   10.01464540913800    5.89170815817677
C         3.58626850730582    9.91435908298944    7.14120374774349
C         2.67271097069217    8.90257112397411    7.39125918332525
C         2.34763081898811    8.00526264912655    6.39294236960811
C         3.13517561106506    5.35692141362376    4.54518336877273
C         4.13758294971749    5.35734622658725    5.50956706358057
C         4.66388535553785    4.16010035089821    5.96249558853947
C         4.20556034626155    2.95556162000359    5.45426655296216
C         3.21414623728078    2.94822242670313    4.48605639093107
C         2.68008005991356    4.14220299478007    4.03860320037694
C        -0.65650570633209    5.44832797994073    6.24985969709075
C         0.56797139409260    5.03946374296343    6.77347479005515
C         0.83124952162280    5.14683340915899    8.12760963933267
C        -0.11265976619461    5.69968865976958    8.97668910527409
C        -1.31324833906220    6.15568237245448    8.45825544614870
C        -1.58425030400318    6.03364508488112    7.10728176226057
C        -0.79627461142042    3.56945255154864    4.07266980317157
C        -1.30569997784517    3.18941698553110    2.83085297149462
C        -1.22353052209204    1.88057685224006    2.39886203530182
C        -0.63157509239061    0.92280240477643    3.20668506943185
C        -0.14339070721993    1.28509471501086    4.44971483500948
C        -0.22268788997098    2.59810268746198    4.88267633867494
C        -2.79014879929917    5.34852437564430    4.48592349510576
C        -3.56381778894006    6.33391780577764    3.88775237844326
C        -4.94730396085709    6.27462186660637    3.94961284842564
C        -5.57308752491642    5.23370798247830    4.61040264784827
C        -4.80824223684374    4.24871702533522    5.21645339307624
C        -3.43021410031080    4.30516960620982    5.15515997780169
H         1.79374363549356    5.62166162030930    1.16339604287923
H         0.17647441020134    4.89464082042953    1.55367881552686
H         0.72847036571669    7.81722276005225    0.73254786597997
H        -1.86377144743173    6.40752442764375    1.61028244943005
H        -0.28301502904745    9.82700628560155    1.35925657180099
H        -1.54804416025428   10.27161682293872    2.52272839047039
H         0.91305006983466    9.53309707966530    3.44809282785645
H        -0.04042418082699    8.41667814908334    5.39725413417683
H        -1.64023734462212    8.28270301413968    4.53876852923558
H         2.53284078392296    9.05496481215960    2.02955568846938
H         3.99406783748788    9.59193396489445    0.12518299230070
H         5.82917356973957    8.05869942678016   -0.49154513591640
H         6.19122257777237    5.99641867607667    0.81413205783768
H         4.74373316123865    5.46275968113920    2.71515665711928
H         4.32553880136529    9.20185235016516    3.92323554628847
H         4.88974404693558   10.79927642263529    5.69324900959414
H         3.83977934461525   10.62131285696496    7.91750633782620
H         2.20977702371412    8.81458941838987    8.36371589732946
H         1.63903994547237    7.21166865065553    6.58520819521926
H         4.50487014136005    6.29205840533902    5.90805450445657
H         5.43885205685511    4.16808003375217    6.71565239792515
H         4.62018497521637    2.02475373349794    5.81291245485282
H         2.84980588074596    2.01338825672586    4.08541829054291
H         1.89149374766153    4.14513779903494    3.29928318293976
H         1.32781672196098    4.65251222466245    6.11144345149665
H         1.78330842408986    4.81128516594503    8.51421291736779
H         0.09197030177503    5.78744490237417   10.03367080874384
H        -2.04484281818039    6.61023587949883    9.11086168825251
H        -2.52371887908552    6.39885623107121    6.71874585966373
H        -1.78960152472456    3.93320424463802    2.21034866322333
H        -1.62321578725687    1.60415612416113    1.43372222004494
H        -0.56167770288624   -0.10185784612436    2.87215905467767
H         0.30085919822188    0.53928998443920    5.09385064279213
H         0.14946189888342    2.85110665370002    5.86335419346704
H        -3.09864716071231    7.15442418447011    3.36616416683397
H        -5.53533291692732    7.04793782252276    3.47658753127253
H        -6.65142588968173    5.18774600071687    4.65632171856712
H        -5.28963041066500    3.43427879172214    5.73863814087218
H        -2.84000744334110    3.53638661331474    5.63469906937767

