47
CSD_code = CAFBOB | q = 0 | S = 0 | Stoichiometry = C15H21ClCoN5O4 | MND = 6
C         5.92798707678453    8.30824476310648    7.91066413721237
C         4.89558807091978    7.35833359405547    8.23046983717011
C         1.76055252113124   11.25371938824261    9.72156371464613
C         2.76062023571508   12.20404640879371    9.31778404935113
C         7.25788799991890    7.91038234589359    7.35555413490732
H         7.13788519795846    7.42140630620834    6.39012365073059
H         7.77154201214881    7.22433080175742    8.02760196621885
H         7.86090430789749    8.80653141755103    7.22709483875415
C         5.06408855116388    5.89195289030859    8.01391126434757
H         5.85403437697223    5.50288027303986    8.65508188784856
H         5.33984997247661    5.69802350977505    6.97937606997612
H         4.13273500358465    5.38079717739047    8.24254650001068
C         0.43152406260997   11.65168100164798   10.27874134719929
H        -0.12081138366371   12.25269921053505    9.55834584170867
H         0.54981470500372   12.23221213543076   11.19314119162611
H        -0.13509652621806   10.74940672370108   10.49878213139874
C         2.53565311849724   13.67707457239994    9.38719114256399
H         3.41423619046984   14.19866235518045    9.01731745882929
H         2.33865613494229   13.98267269843358   10.41365182137180
H         1.67308605028788   13.94813659739808    8.78131000927420
C         5.70978057838194   10.34254784763364   11.11960470801675
H         6.18170030429086   10.93790148683766   10.35005918431409
C         6.25822514602204   10.29744112718520   12.38959328964732
H         7.14842038480320   10.86532287293103   12.60857880613018
C         5.64759852837419    9.51742186555539   13.35804035768298
H         6.04930080399153    9.45949367054700   14.35853931326987
C         4.50680145810050    8.81452947768487   13.00704451947551
H         3.99078902517539    8.19290704530833   13.72131717958366
C         4.02583735664974    8.91789153242921   11.71318284606292
H         3.12865672705262    8.38504627549525   11.42805138996774
C         3.17855220245554    9.88730635987155    7.05607580028215
C         3.70292034973246   10.56392792363965    6.04889611346043
H         3.25431753322484   10.57078919533718    5.06584208058340
H         4.60556946069507   11.14023172230339    6.15858875949783
N         5.59975767112988    9.54088568766658    8.16335277144723
N         3.83278484619809    7.89309376682623    8.73226333547608
N         2.13076725172065   10.01436923703242    9.57629032068574
N         3.86157136749246   11.66170850272997    8.91379250926865
N         4.61290250212466    9.66679669013180   10.78097979706475
O         6.42149142303788   10.51901821809011    7.98436006995457
O         2.80246762990764    7.09926526222389    9.11077527315842
H         2.07395486121159    7.76561601509954    9.43353737135610
O         1.39529953278303    9.02972150583948    9.95309160591509
O         4.89458901984763   12.45499387064499    8.53102085536254
H         5.63202548745440   11.78041670853618    8.23698868504972
Cl        1.71941252643762    8.99569766240330    6.72671553784537
Co        3.86406834310131    9.77856429916651    8.86386452429502

