83
CSD_code = CAFGUL | q = 0 | S = 0 | Stoichiometry = C33H43MnN2O4 | MND = 6
Mn        1.28085573614074   27.86426419868797    6.44221665034915
O        -0.12173287059031   27.36516197598326    5.49454808022608
O         2.94885221123604   28.40357526957794    6.86421758259200
O         1.43171373727883   26.26343323906958    7.32383225060397
O         0.37489957655858   28.70180183185714    7.81462257863993
N         1.16873298990206   29.75180730878280    5.15309447962858
N         2.52044003049471   27.26022115947913    4.29614475697227
C         1.71592605234313   29.55689851527291    3.80016098788920
C         2.88559518165347   28.57301760818835    3.75543473028447
C         1.76289061370858   26.50005245689583    3.30733634892797
C         3.71949569749300   26.50064348994786    4.63864170339868
C        -1.14651170699476   27.81722841878920    4.81314440215243
C        -2.21400801659340   26.96557463332405    4.42540279062690
C        -3.14518987213402   27.45514128115614    3.52970469135360
C        -3.10832828685559   28.74805640042259    3.00888092894725
C        -2.12895003722431   29.60089096535612    3.49278135364858
C        -1.17563673792238   29.16417495149788    4.39776056741579
C        -0.24399969104864   30.16215330715517    5.03577163483359
C         3.73927628493396   29.43686409271649    6.77279335202311
C         5.08033225590112   29.34035234610858    7.18930163316134
C         5.96129437143698   30.38258723656975    6.99807493906192
C         5.54502332421627   31.54753645791230    6.37328038907501
C         4.22420860257033   31.66863255753340    5.97306753311556
C         3.31372007955378   30.64635658781204    6.17333105046053
C         1.85818848003632   30.84983891584601    5.85669453382780
C        -2.34211714562668   25.58971099450426    5.06863944142284
C        -1.11985626561274   24.72321849585207    4.74047927772529
C        -2.42958607332640   25.78473573522726    6.59019901377897
C        -3.59730817563964   24.83920441169771    4.61165209087268
C        -4.15098600685789   29.17216033129112    1.98586954276636
C        -5.54702370646528   29.08268463685517    2.61786993110679
C        -4.07223940037943   28.23785127286399    0.76999772831793
C        -3.94144769315690   30.60708097407358    1.49402158583223
C         0.97888777144703   25.93919040675570    8.48714684479377
C         1.17599770125410   24.62117246808548    8.96434251011516
C         0.71248777471337   24.22514425052521   10.19066927716355
C         0.02348776469534   25.12273245541740   11.01656533471900
C        -0.19013951458130   26.40651790932089   10.59605184770093
C         0.26888913873243   26.85478071049516    9.33876913504514
C         0.03401624208172   28.18368646000146    8.91801740214153
H         2.04910526392969   30.52094541354910    3.38716359250505
H         0.90670024194124   29.17776505802721    3.16949356242881
H         3.22385424492983   28.48042473522007    2.70801682362304
H         3.71480674836168   28.97492129722364    4.34045972362550
H         0.82264280954054   26.99447626842023    3.07611096932716
H         1.53691441701364   25.51641721879761    3.70982079846539
H         2.34087865168704   26.37829856276152    2.37777131306469
H         4.34510326984351   26.31577995009684    3.75266307440940
H         3.42005974616842   25.54822305565335    5.07028002258349
H         4.30218615839133   27.04144063158810    5.37995676725509
H        -3.94405074042617   26.80701286136371    3.21308584951597
H        -2.09825193650407   30.63533363415176    3.18746611313460
H        -0.30147540289087   31.11081228710573    4.47678916817290
H        -0.60735288005860   30.34757727094408    6.05339604284253
H         5.39517687588006   28.42539438234317    7.66976326957063
H         6.98452413665355   30.28400067058984    7.33048546212438
H         6.23768995908172   32.35847026921569    6.20918643827205
H         3.89076677757235   32.58674705637885    5.50710032934582
H         1.33220193010895   30.98657737318888    6.80971731085863
H         1.74934042933499   31.77962551456168    5.27289712864870
H        -0.98841850100196   24.64529048085176    3.66249168839829
H        -1.25508629223128   23.72298915251091    5.14781861049364
H        -0.22593246761949   25.15689045721526    5.18103552268083
H        -1.53500384314250   26.27809231383609    6.96528401579202
H        -2.52085291382126   24.82254925263867    7.09027405741530
H        -3.29469666053121   26.39420828492230    6.84560206779244
H        -4.49925139922150   25.39965314938480    4.84670328607139
H        -3.65193972500466   23.88499158353382    5.13187174106357
H        -3.56765873555498   24.63640294295892    3.54322959271521
H        -6.30398471579561   29.40389413067403    1.90518228356306
H        -5.60294800065613   29.72351646955075    3.49517873523611
H        -5.77702219512157   28.06623166012726    2.92425807780735
H        -4.80270197139956   28.53436856913016    0.01999608888289
H        -4.27111955633907   27.20721066311787    1.04910576699875
H        -3.08077239391492   28.28456946166927    0.32425488904909
H        -2.96018350463651   30.72413856873573    1.03974320751020
H        -4.04492712877657   31.31929615963973    2.30910793056173
H        -4.69150852016126   30.84677162468168    0.74289139620111
H         1.70853381328436   23.93710274516689    8.32010874628561
H         0.87882717861555   23.21188533001725   10.52667513629126
H        -0.33510221814369   24.79587140948668   11.98113156017796
H        -0.72126292415936   27.10752787091272   11.22473324348936
H        -0.50365844259661   28.83946748916284    9.61376768302179

