50
CSD_code = CAFHEX | q = 0 | S = 0 | Stoichiometry = C18H21CoN10 | MND = 6
Co        1.93139209656515    1.93152456261390    1.93145230532816
N         3.96789920785458    3.96789794588753    3.96770617172872
N         1.88248817329553    1.82738019216023    3.87855262263770
N         0.06597090312781    1.88241590671082    2.06925355542509
N        -2.15668950130073    1.82549035655964    2.07451917495139
C         3.53224768491135    3.21500083100735    5.10347445195125
C         2.98488232427496    1.79670889111135    4.79804861482797
C         0.67451566490939    1.73634244136541    4.33223797873896
C        -0.35718367004786    1.78143393938220    3.38008355044631
C        -1.75110651229312    1.74828983861810    3.34415159525123
C        -1.04320818570779    1.89923036207644    1.34356396676562
H         4.36665122393315    3.08752732578409    5.80934871898276
H         2.75176157649644    3.78972428734259    5.60698736995203
H         2.67908320657967    1.34508042070561    5.75106563118641
H         3.78533583556575    1.18875943691099    4.36993467636159
H         0.46633802394741    1.61849263257683    5.39388746047062
H        -2.44743315213260    1.67657158313111    4.15666018476368
H        -1.05882914549387    1.96488154346558    0.27204289417781
C         5.10359325973720    3.53218723823149    3.21473370384939
C         4.79804739706127    2.98478219352077    1.79647912943826
N         3.87847535046531    1.88245849875979    1.82729347959785
N         1.82728063002899    3.87863515140153    1.88254912351314
C         1.79661684329029    4.79816794371707    2.98491492867798
C         3.21497191089002    5.10365545990709    3.53207733278953
H         3.08762630970382    5.80959157169025    4.36644761785011
H         3.78959156682711    5.60710257243671    2.75147095518698
H         1.34491491693278    5.75114820208585    2.67911525611363
H         1.18876939515343    4.37005474301422    3.78544328208851
C         1.73653741594915    4.33235501950901    0.67456619621292
C         1.78179777921218    3.38022469281026   -0.35714275988664
N         1.88245874480231    2.06936621483325    0.06597982138305
N         2.06905418599192    0.06609586584128    1.88248148405506
C         3.37985776144736   -0.35719306068608    1.78178989593983
C         4.33208577530904    0.67443534495745    1.73652386939949
H         5.39372744439150    0.46616398743058    1.61878571987834
C         3.34381633649359   -1.75112720052685    1.74915300091113
N         2.07414396664002   -2.15658009889985    1.82639441369513
C         1.34326829036194   -1.04301424227768    1.89964123160042
H         0.27174109919991   -1.05852683475211    1.96522452974993
H         4.15627511712353   -2.44755205974273    1.67781118396899
C         1.89970339774189    1.34374840551954   -1.04324110127702
N         1.82668032895681    2.07479464425025   -2.15671452018726
C         1.74924040540500    3.34439060942354   -1.75107933135870
H         1.67796235746821    4.15696302296040   -2.44738229281412
H         1.96533404694185    0.27223047339454   -1.05890495143932
H         1.61884116192277    5.39401816921116    0.46637675333921
H         5.75101651495557    2.67889026313509    1.34480914940305
H         4.36994714111651    3.78522401703593    1.18850674008619
H         5.80948725009590    4.36656040255243    3.08718400088234
H         5.60712014389758    2.75169629184606    3.78944123340530

