67
CSD_code = CAFKOJ | q = 0 | S = 0 | Stoichiometry = C14H38IrO10P3Si | MND = 5
Ir        3.92889319691483    1.83788504949805    3.15288588465800
C         4.91282016631758    1.14906323348656    1.76358176202125
O         5.59456545689205    0.83057756845873    0.87093661268875
C         3.50894187648308   -0.11110264504997    3.97712555408644
Si        4.27029520814735   -1.74544604515629    3.38366330991528
C         3.72605451141792   -2.16808510218803    1.60082881992332
C         3.67311300266246   -3.18116479147796    4.51195219153634
C         6.18061521772591   -1.71721035585235    3.48726918232084
P         3.80021557030896    2.70286236092875    5.32245034014229
O         4.23250755026907    4.27142465567981    5.28198845850262
C         4.45095342447765    5.00181352872363    6.48071515432912
O         4.84503196343025    2.08295843670840    6.42308824934339
C         6.04680429923253    1.46192565993836    6.01501744868382
O         2.57366886619308    2.86852454680899    6.37328281140940
C         1.85506727707445    1.72865785136429    6.80992686357829
P         1.44049060622531    2.46337170738989    2.92502011999395
O         0.42300379390790    1.55408518023518    3.87029516918278
C        -0.96490948043481    1.49839137982920    3.60292973211128
O         0.67747024571009    3.90568759182389    2.94602990243850
C         0.65067636369047    4.64899126292343    4.14144734609877
O         0.86558054969400    2.17685223918487    1.44778757470789
C         1.40995043136518    1.15370513965567    0.64028782597163
P         4.08129756932787    4.02369418026265    2.27678731140134
O         3.29186541274305    5.41112212466594    2.54638810281577
C         3.73216667178337    6.47491552613077    3.36043759427990
O         5.52822389621152    4.72945656296433    1.94422834537533
C         6.71382309033025    3.96505363997847    1.90184052671765
O         3.44738726712645    3.71415984962401    0.83049406051727
C         3.30030889594330    4.70268074520523   -0.17829409029871
H         3.51780687671746    5.44488101019807    6.83308862004972
H         5.17144153166832    5.78786992730342    6.25347420467227
H         4.84844655827879    4.34862122037742    7.25864094870470
H         6.20719344835064    0.59663118597947    6.65878599968172
H         6.88166446877862    2.15782662076736    6.12261833977251
H         5.97197756035679    1.13741529056068    4.96771299315928
H         1.13095869828549    2.08476236739967    7.54311169218718
H         2.52541759156470    1.00694773402141    7.27906546582541
H         1.33670415387953    1.25742885835645    5.97383439800869
H        -1.50685410592122    1.75083350341240    4.51706483985144
H        -1.22998056324053    0.48478116944931    3.29515194309481
H        -1.23734231063162    2.19829530779835    2.81045976368796
H         2.34481688310738    5.21467361388297   -0.05971079158353
H         2.42244359933899   -0.19825404958198    3.85352814730370
H         3.66780411227486   -0.06409864637453    5.06188166560619
H         4.11338855681699   -1.44131460527684    0.89663014184001
H         2.64458802237435   -2.16863275836367    1.50917275185276
H         4.08271037980240   -3.14693987689984    1.29525130534396
H         2.59147370246577   -3.27088509348752    4.49665872838108
H         3.97175733052013   -3.02272221536477    5.54352089069103
H         4.08408300956227   -4.13520831040894    4.19686980513250
H         6.58400512515654   -0.90918782320818    2.88738585686732
H         6.61184764927841   -2.64536916390054    3.12534622944733
H         6.52250775807348   -1.57278588722458    4.50729574126825
H         0.46148305103016    5.68776278307900    3.86848145254921
H         1.59788575246391    4.58013924984427    4.68040676049209
H        -0.14728149224084    4.29386916928105    4.80091971974270
H         1.23986242074893    1.44249461519455   -0.39678881585235
H         0.91227952460115    0.20197870743928    0.84235735863840
H         2.48362830318994    1.03835803106140    0.82217665956644
H         3.42782134302730    7.39994347602221    2.86660289726531
H         4.81612201450861    6.46473474035576    3.46956251470690
H         3.26435829794698    6.41937899340172    4.34400201616481
H         7.52793545125601    4.60326004861319    2.24878952070070
H         6.91545717275298    3.63446320374086    0.88124733340190
H         6.62922222650395    3.08210574463406    2.54517638261172
H         3.32477572424017    4.18185314243250   -1.13544113009390
H         4.11210727204250    5.43113763386018   -0.13292451520812

