42
CSD_code = CAFPUV | q = 0 | S = 0 | Stoichiometry = C16H20Cl2N2ORu | MND = 9
Ru        3.72535072497769   12.90295748728527    4.41308794750223
Cl        1.62216687046050   13.92138134943787    4.57381428461267
Cl        3.32373595818161   12.70146828462059    2.11371395895923
N         4.41806693886714   14.71259195214551    4.01440460889738
C         5.26005642481707   14.94724778516113    2.99934942415086
H         5.52789255559629   14.09434447812854    2.38856497227902
C         5.74615434459169   16.20560682848327    2.71155996128977
H         6.42694757315679   16.35701025365291    1.88922224007101
C         5.34301025720947   17.29351205941435    3.48251579956631
C         4.48731854142605   17.03931756419516    4.55214178945877
H         4.16672704864875   17.82755152172302    5.21537047103854
C         4.06154133952599   15.74783571537732    4.78639666424721
H         3.38333887607281   15.52966040841780    5.60289893488851
C         5.87184652636683   18.65442522319463    3.15846541449105
O         6.98541402558350   18.82766416301633    2.71503061219612
N         5.01574205891318   19.67113700311138    3.41965029986206
H         5.29718296983971   20.60325386282813    3.16242520901413
H         4.04897079520589   19.50794879071878    3.63736727475286
C         5.16658210769989   11.04285334485664    4.53898961118705
C         5.67576688694945   12.07024726474622    5.34283613227071
H         6.71196006581540   12.37300047067488    5.24467476033200
C         4.88141216704292   12.66635148421111    6.36439127250102
H         5.33116292791103   13.40756308336043    7.01749613543495
C         3.56990781151128   12.23413240929403    6.60433882745051
C         3.03972616725551   11.20678806594184    5.76741748602050
H         2.03802773702315   10.83624414003316    5.96128428521085
C         3.81494325739477   10.63659181800435    4.75482076208491
H         3.41249964312756    9.81883253060343    4.16494518918538
C         6.02925796602098   10.31255442238594    3.53763761226953
H         5.40242774979839    9.57341393543765    3.02754142476237
C         6.58669764304353   11.26162697413669    2.47609189609916
H         7.23953050787582   12.01013861905243    2.92066191845122
H         5.76146114602022   11.75694883729778    1.96700318989700
H         7.15910672349195   10.70036572698651    1.74194105266596
C         7.15444571176059    9.57001137863906    4.26639517342839
H         7.83624759606907   10.26949310267122    4.74493867888769
H         7.72097404826626    8.97263940572395    3.55660786436458
H         6.74873038510796    8.90717663788685    5.02838813349037
C         2.72482107434416   12.81343575547973    7.69447256315242
H         1.87929810008391   13.34053892090585    7.24613548312110
H         3.29190066496087   13.51302990199924    8.30450905389131
H         2.32884808193400   12.02350703878998    8.33140162655990

