49
CSD_code = CAFPIJ | q = 0 | S = 0 | Stoichiometry = C20H22MnO5P | MND = 8
Mn        4.55157201345039    1.86002822100121   14.25669485472679
P         6.33782039804346   -0.26681850268566   13.75961650794279
O         6.21309453210321   -4.18935320490285   15.88314887795811
O         4.18781742536406   -4.67566864069776   15.04188176459279
O         3.24339673012247    0.23883361817011   16.33080504873961
O         2.04957086817278    2.77670478526280   13.02534264561990
O         4.89377515161688    4.31526075552470   15.82738293023051
C         4.97951046935662    0.33571534781112   12.80708383871106
H         4.38288765776747   -0.30820273726636   12.16445033900787
C         5.39830760638832    1.65462512430017   12.34832337731178
C         6.33654149934878    2.23892541586857   13.21550148291728
C         6.64271023759190    1.37127340854601   14.34867136963176
H         7.49155042716885    1.59619954173991   14.99115097920098
C         5.02138985181811    2.19588893598050   10.99939149588176
H         4.90673175171145    3.27824954611743   11.01548010556173
H         4.08784824698114    1.75650219690651   10.65085883277332
H         5.80823543628505    1.94881897781487   10.28112503214295
C         7.11304124038927    3.48959316074038   12.92272847690646
H         7.94239331110651    3.24884346408237   12.25174672482806
H         7.52568212480306    3.91265124665551   13.83723596978974
H         6.49481776833094    4.24567762914854   12.44184646105597
C         5.96411674482527   -1.50652432175844   15.03814340370855
H         6.91015971813818   -1.92319485375199   15.40481324644761
H         5.44384987418171   -1.02776016079837   15.87167992247196
C         5.12934460842165   -2.62102276741213   14.41008704516616
H         4.07704385806239   -2.34398386041614   14.33595855913679
H         5.49750044146081   -2.83675824350681   13.39827989638601
C         5.25938368882013   -3.90774970053006   15.20667813651467
C         4.17910668194144   -5.94464368262445   15.70550418817664
H         4.63526189125069   -5.82824464027935   16.69361979116721
H         3.12308638333806   -6.20011002542545   15.80868224627972
C         4.92512878132410   -6.99708540502129   14.89925792611435
H         4.49964025962634   -7.07988383460897   13.90201420337663
H         4.84884204343243   -7.95844337845213   15.39857166526018
H         5.97515221292812   -6.72722992471730   14.81568621271087
C         7.68275032021676   -1.04259730907676   12.79752914820160
C         7.54264640609871   -1.23605709907594   11.42804607464931
H         6.59651376373684   -1.01263695042722   10.95122285703526
C         8.60601482218075   -1.72647238155426   10.69170591955478
H         8.49631430503702   -1.89142956898372    9.62984278407199
C         9.81200417079352   -2.00012134006643   11.31641281879685
H        10.64204552570530   -2.37931652694860   10.73934003733354
C         9.96157405433200   -1.78102752656320   12.67812718555592
H        10.90689158378049   -1.98670752044795   13.15798430651545
C         8.90156378542317   -1.29772929838286   13.42025872038529
H         9.00671478328829   -1.11701475025967   14.48245405479377
C         3.78697448178494    0.86744269850162   15.52839106618526
C         3.01819547853929    2.42049760850815   13.53830223668285
C         4.72208458341086    3.34835647395571   15.22533923178060

