93
CSD_code = CAFQEF | q = 0 | S = 0 | Stoichiometry = C46H39IO4P2Pd | MND = 4
I         6.55380554198604    9.40206054068861    8.23312749025752
Pd        6.75207364429584   11.92457151517778    7.71339348955611
P         7.03761769715770   14.12366749675466    7.32123515186978
P         4.88843871872862   12.42096070480543    9.03248340909240
O        11.53643424146413   10.29879369409286    3.04222434204972
O        12.93250620585574   11.12274107354659    4.59132687371322
C         8.37258724598916   11.50283437252899    6.66216093670878
C         9.64693708997030   11.73889350573924    7.16358511004797
C        10.75466139347009   11.51247523575901    6.37014348056186
C        10.60088586761042   11.03775332970561    5.06809794675133
C         9.32408228251893   10.76800256892392    4.57709420040148
C         8.21865239327813   11.00327648993147    5.37208250951394
C        11.80908945269665   10.83688912781953    4.24789181674271
C        12.65638956297579   10.06353871265109    2.20746925578097
O         4.91397116891644   16.06684826299347   11.63055045748835
O         4.55905934541596   17.52621020002343    9.15422871340479
C         5.92222347282569   15.26325023829487    9.67823414234716
C         6.06915456630881   15.72996568099234   10.99891620647231
C         7.32716215562431   15.78454621344447   11.58110125531402
C         8.44156214257683   15.36827448850844   10.86870408935370
C         8.31288680299411   14.92638005486412    9.57163886953971
C         7.05600539242448   14.90458323343654    8.95731847964189
C         4.98487476473962   16.56494999836599   12.94350909501088
C         3.90428017273565   18.76253527814170    9.01679365575950
C         4.55055336685540   15.18798801552335    9.13129135263942
C         3.84969298586523   16.38585479350389    8.92716781321563
C         2.53560529454623   16.34883005307538    8.48133340865818
C         1.92585008523318   15.12982933069988    8.23590449913781
C         2.60908411271675   13.94718246297765    8.42487852736799
C         3.92253709325519   13.96631861687105    8.88916295169338
C         8.34146712823406   15.00035259531419    6.39784279913882
C         8.84583454035107   16.23807299073310    6.78249402676644
C         9.79739814135467   16.86516853558915    5.99849541154952
C        10.24602205884463   16.27028452899130    4.83061478319518
C         9.72548559918147   15.05041842484670    4.43104716009187
C         8.77027297480494   14.42189205896047    5.20684313688725
C         5.59931892347194   14.68521277155671    6.36560101640517
C         5.28218830169355   16.02666807919316    6.19116639121918
C         4.19580945787045   16.37193193904297    5.41001307931166
C         3.43751308881105   15.38917012144784    4.79246597907820
C         3.76993784479963   14.05280478363190    4.94065457973726
C         4.85464128870474   13.70182552279448    5.72239946793228
C         5.52654764148275   12.53269626290508   10.73027683980631
C         4.73960407784837   12.96014547775177   11.79626512628900
C         5.27867555099142   13.00933810010824   13.06785177771819
C         6.60250970225573   12.65525045756184   13.27896167041765
C         7.39403364929760   12.24985324860275   12.21736936098277
C         6.85780363313347   12.18426219860587   10.94451002292712
C         3.58298847296944   11.15349916977033    9.08798067424670
C         3.05269716627310   10.60135448312914   10.24510019075991
C         2.09215564765377    9.60830625859582   10.15179515803005
C         1.66314561856898    9.16029780716637    8.91479020469640
C         2.20584609926396    9.69396602654444    7.75618486883816
C         3.16726690494235   10.67986039150619    7.84369926141740
H         9.77611232839306   12.09968345419036    8.18385187150258
H        11.75294304522018   11.70013395695848    6.73748736971226
H         9.20818280013231   10.38127066406891    3.57612739422199
H         7.22169226302317   10.78286734885521    4.98749487097266
H        12.26952359131510    9.60976550315515    1.29833912086579
H        13.36376917388459    9.39253539912210    2.69969564523657
H        13.16711539431124   11.00244824601551    1.98057216110940
H         7.45209850727112   16.13179336246026   12.59395906979829
H         9.41235268602880   15.39099669612503   11.34069322859873
H         9.17998610227899   14.59589553982218    9.01307678044329
H         3.95524803387744   16.76450757701543   13.23699823465207
H         5.56054014765454   17.49505726686838   12.99003312100749
H         5.42069437910042   15.83065538387082   13.62834136743401
H         1.97888683860408   17.25811903127802    8.32048349930951
H         0.90297669917439   15.10963273757219    7.88998953380061
H         2.12164858433319   13.00415659963273    8.22622153151445
H         4.64482190986745   19.51840620597919    9.27491043093496
H         3.05168435514948   18.84483187291006    9.69829391562854
H         3.56534319474948   18.92718288111662    7.98840360029317
H         8.50266368782670   16.70732128198001    7.69402788923350
H        10.19276434001508   17.82337288434036    6.30321441233953
H        10.99893388608278   16.75976992724451    4.23114029436139
H        10.06597189687384   14.58581992509236    3.51792836950232
H         8.35631890076966   13.47116559972144    4.89736044135112
H         5.88070480893972   16.78593432507689    6.67540142075478
H         3.93868850752403   17.41275941132978    5.27533553704842
H         2.58868377130180   15.66779871152101    4.18582240930941
H         3.18576499175256   13.29107345904774    4.44550604938271
H         5.14585831649557   12.64887195219262    5.83864712119319
H         3.71761089229879   13.26798003946001   11.61995312189759
H         4.66313715521404   13.32270973524985   13.89963224579245
H         7.01811920139314   12.69682002413304   14.27544032301923
H         8.42620638970565   11.97973298859412   12.38383761098564
H         7.48491612252987   11.86020978938789   10.10274119158441
H         3.39961006718733   10.92544249679863   11.21516946194082
H         1.68508301560101    9.17519020501049   11.05365815145310
H         0.91915525680503    8.38034412232331    8.85136953563224
H         1.89126441869152    9.32721739595917    6.79042351941648
H         3.62929656464828   11.07838847426673    6.94404562922051

