74
CSD_code = CAFREG | q = 0 | S = 0 | Stoichiometry = C37H30Cl3IrOP2 | MND = 6
Ir       -4.27851586636157    1.15284888480446    3.54803726258172
Cl       -4.48069720863685    1.35858514808408    5.93232753195390
Cl       -4.27856990711562   -1.18429492402312    3.54826536021956
P        -1.92849291648037    0.88077308863555    3.75353283467302
O        -4.27732620927283    4.15811521729423    3.54657826179961
C        -4.27816932742239    3.01838431428551    3.54726585155637
C        -1.06964289722100    2.41802799804596    3.31297853969018
C        -1.27767822727650    3.53668645984670    4.11965578393438
C        -0.70091731256316    4.74688799749357    3.78874873474787
C         0.07288540091055    4.85370773118381    2.64262294769600
C         0.26667359781266    3.74933979583154    1.83053225772306
C        -0.30345391282084    2.53142162245530    2.15993534726408
C        -1.36294085561127    0.48776751848126    5.43743905311755
C        -0.36852920324787    1.20933722755281    6.08902182008485
C         0.03644717380135    0.83267907431097    7.35761513533855
C        -0.54230807329618   -0.25959451799804    7.98107048927491
C        -1.52402885289631   -0.98749566660944    7.32852626751700
C        -1.93242560472095   -0.61961054863833    6.06109666367005
C        -1.07760342102056   -0.39459170983919    2.77275842434047
C        -1.62903944675559   -0.93137470973927    1.61629280465067
C        -0.92653856903299   -1.88132940823346    0.89509914645752
C         0.32404533195647   -2.29670657104274    1.31843982827569
C         0.87938753766766   -1.75627512313840    2.46762112114022
C         0.18420823799565   -0.80963175966758    3.19566510552492
H        -1.89264792030595    3.44470155678842    5.00649939852428
H        -0.85962286185795    5.60936746997217    4.41903048063265
H         0.51812764129766    5.80192161427214    2.38047465116213
H         0.86070606926579    3.83613425753556    0.93284514903600
H        -0.16014586223092    1.67106726562367    1.52233140967655
H         0.09517001903743    2.05962491829233    5.60929447939256
H         0.80800384729347    1.39822397384015    7.85986791991714
H        -0.22683261224442   -0.54321096375875    8.97436379025611
H        -1.97554423219156   -1.84185782345669    7.81027115244215
H        -2.69979321598162   -1.18423899928078    5.55188867863698
H        -2.60116342356716   -0.60791349489562    1.27916246817307
H        -1.36173654486402   -2.29832893621417   -0.00082171258624
H         0.86788218722719   -3.04126836894718    0.75576320971369
H         1.85633109669649   -2.07554401413016    2.80034613084723
H         0.61928342957669   -0.39262816806215    4.09357539151167
Cl       -4.07611691331470    1.35784604118697    1.16359613240517
P        -6.62871630083250    0.88100707550562    3.34261817736748
C        -7.48772708435902    2.41811428036702    3.78344807278918
C        -7.19415240038662    0.48796884083302    1.65869302617262
C        -7.47937172860164   -0.39454530436873    4.32335820100145
C        -7.27880843762706    3.53723605499785    2.97764402360902
C        -8.25469152972413    2.53101298646405    4.93602984602799
C        -8.18782957805349    1.20995300830159    1.00647162479861
C        -6.62496637923889   -0.61987839264643    1.03557410977178
C        -6.92782615413909   -0.93074755380100    5.48005117820775
C        -8.74096241062835   -0.81025976469888    3.90045410439036
C        -7.85511389746196    4.74749786573099    3.30913228711531
H        -6.66344224624806    3.44558380597264    2.09104328224832
C        -8.82444282869587    3.74896434541967    5.26597608756079
H        -8.39887674826283    1.67027196123401    5.57291238279899
C        -8.59248644774555    0.83310658769971   -0.26218028762560
H        -8.65116655645032    2.06071474951646    1.48571301839362
C        -7.03301168413436   -0.98792095034074   -0.23191444721905
H        -5.85808482506824   -1.18473210939583    1.54527485394898
C        -7.62998102801863   -1.88074734250768    6.20150999156758
H        -5.95586071550009   -0.60678705722440    5.81714988752672
C        -9.43582014410607   -1.75693296091478    4.62878950685577
H        -9.17613533867055   -0.39374050508816    3.00236194783333
C        -8.62948534952454    4.85388188053785    4.45491550473321
H        -7.69557500941461    5.61037542076467    2.67960543415134
H        -9.41906745872062    3.83535971869404    6.16331183736723
C        -8.01409987214762   -0.25969540845527   -0.88505659785921
H        -9.36351315026790    1.39890861912238   -0.76495912553270
H        -6.58174524392161   -1.84266556101463   -0.71321529316829
C        -8.88037898220937   -2.29673860261842    5.77821911494450
H        -7.19464831590262   -2.29729480057665    7.09757488693981
H       -10.41263010006240   -2.07669227676155    4.29613957379144
H        -9.07430309198707    5.80215500037750    4.71757508891480
H        -8.32936815972462   -0.54348982764398   -1.87836583520120
H        -9.42398097499090   -3.04129725269459    6.34112923245509

