47
CSD_code = CAFRIM | q = 1 | S = 0 | Stoichiometry = C17H21ClN5S2Zn(1+) | MND = 4
Zn        1.80976116585741   18.68151440220981    2.59753712137439
S         2.14831221676504   19.72535757720941    0.43232175477731
Cl        3.27752416662385   17.41401143199277    3.54263499040881
S        -0.21346807767132   19.41986790071548    3.71673480995191
N         2.19123790067041   17.04369235551165   -0.17872016740220
N        -0.53646791351793   16.68998327060169    3.62197609840554
N        -0.83969155742718   17.60150555243374    5.58867992872010
N         0.71535460580201   16.98251547993502    1.65198269287802
C         0.17268667109715   15.75189600554823   -0.32463422305240
H         0.41073858466134   15.50547792588030   -1.34599946432250
C        -1.08521563453519   16.26106507316224    5.71453381335976
H        -1.36059638973646   15.81407196951918    6.64675708339746
C         0.99282387374325   16.61128657904524    0.40273254998915
C        -0.91855115962433   18.58232946992299    6.66294323286046
H        -0.56875863738476   19.52557341769639    6.23152786274036
C        -0.48988686876373   17.86606814202279    4.31856669160900
N         3.86650673450209   18.21133278988394   -0.96668935041794
C         2.98943431308064   16.19704653782020   -0.93080337261427
H         2.77785586094913   15.15260987667378   -1.02321471772223
C        -0.00087849893759   18.17019909397828    7.80842687067069
H        -0.36726054893966   17.27822171966382    8.30992906806110
H         0.04448659073627   18.97415309291370    8.53694840999729
H         1.00648660760927   17.98173628048423    7.44439913207248
C        -1.21444224517447   15.57191602982917    1.60839717066725
H        -2.07771853264680   15.18252425565116    2.12201088492850
C         2.76041794449089   18.28701638143403   -0.20744305506724
C        -0.33893913243664   16.43848468227227    2.25854630253500
C        -0.96086885886558   15.24617683647310    0.28744135045964
H        -1.63145752669762   14.59820982866933   -0.25408219964901
C        -0.91088687963441   15.69093971239362    4.50581503503060
H        -0.97341180912143   14.66544671534470    4.20813978800656
C         4.02212433039021   16.92336439998209   -1.40239237839944
H         4.85004518091629   16.61959409984191   -2.00816092372963
C        -2.36889727673167   18.73746913936709    7.10741605702032
H        -2.99578547555496   19.03171993344194    6.26916920060932
H        -2.43143432758685   19.50909665318879    7.86862780173892
H        -2.75141873597939   17.80992255335801    7.52624752909747
C         4.76923414075400   19.31811684198902   -1.25381947844166
H         4.38719997851320   20.16990919740659   -0.68237698701732
C         4.71982529087734   19.64552360985626   -2.74213770250012
H         5.08473963899545   18.81354618932552   -3.33927997837630
H         5.34516052241289   20.51010006305602   -2.94146065151982
H         3.70346771232698   19.88055644607538   -3.04819863432110
C         6.17704078238013   18.97265229226998   -0.78162993623820
H         6.16591293206668   18.65828616783310    0.25959581875534
H         6.80880092511213   19.85201342522002   -0.86601923322641
H         6.61485741563521   18.18079860089533   -1.38427659610580

