73
CSD_code = CAFSUZ | q = 0 | S = 0 | Stoichiometry = C28H41N3Zn | MND = 3
Zn        6.01854042153135    8.63510992696012    1.35901330960747
N         6.22194136657722   10.22922652991545    2.59481027451979
N         6.46800830147712    9.80622004869529   -0.26169565456629
N         4.35611994082934    8.17192494051336   -0.43955370413864
C         6.38519898166366   11.50666950381061    2.26388664448618
C         6.47064719294792   11.94216853311801    0.90102348332848
C         6.57401100901006   13.32628114316589    0.63345829755343
H         6.62568159878555   13.63733931600212   -0.40193997187115
C         6.62465430889837   14.26744110922339    1.62081112077715
H         6.70970284951364   15.31693553858560    1.38415759043333
C         6.56610593923489   13.84634543730664    2.95701485294739
H         6.60718876162352   14.58009745879026    3.75011504911964
C         6.45078467673264   12.52333629856500    3.26374779839357
H         6.39536887616363   12.21558317799036    4.29797541375528
C         6.45775993985489   11.09656004728225   -0.23106207621260
H         6.45219382503929   11.62832171386694   -1.19279427331411
C         6.35467486869807    9.15251479429988   -1.53765426405838
H         7.34052963691115    8.78854234810103   -1.85068750352849
H         5.99952615447212    9.85063686283116   -2.31041170400587
C         5.40886042397537    7.94541416642802   -1.42417602337383
H         4.98908152508657    7.71782482887488   -2.41741592411440
H         5.98328703936955    7.07996665792560   -1.08898555528855
C         3.42992702609997    9.20900462592656   -0.88829947959933
H         2.92082191091154    8.88673196774583   -1.81359400909526
H         3.99236873654709   10.11712540520467   -1.10601058945548
C         2.39380771088916    9.51406418418585    0.18630101792063
H         2.91050793081257    9.89518590153360    1.06866365581185
H         1.71873652358091   10.29224285963432   -0.17445963700012
C         1.61623325496941    8.25424694072569    0.54798258329022
H         1.01894091338268    7.93304928209213   -0.30965108004532
H         0.93212791397773    8.45477044986308    1.37392715183225
C         2.59947309735987    7.15294578842736    0.92594048813066
H         3.14380332517982    7.43998998444144    1.82774339585463
H         2.07283497779737    6.21777569346313    1.12298228911742
C         3.60558879668948    6.94327763601808   -0.19816164963305
H         4.30678950556055    6.15505992951500    0.08012672797754
H         3.07792004709970    6.62783136410984   -1.11468095653694
C         6.29994942359736    9.87565055399723    3.95925449623413
C         5.12929898701324    9.63688986434007    4.69409359100086
C         5.23066968576655    9.30457135379023    6.03644830422177
H         4.33727836289848    9.13958022074416    6.61857246587254
C         6.46496246642799    9.19117921627811    6.64774895295860
H         6.52881642915225    8.94470999053210    7.69769142946825
C         7.61625940520181    9.38299786379233    5.90845482219204
H         8.57666337492997    9.27587857641798    6.39007181951477
C         7.55688728827501    9.71698244035853    4.56373081237762
C         3.78331229473823    9.76284806890997    4.02022147140378
H         3.94537581706463    9.58297353466112    2.94854770071134
C         3.23089507106111   11.18101890927905    4.18767499646825
H         3.90223863967227   11.90953499093288    3.73895096372598
H         3.12072983733486   11.41853059915858    5.24415666139225
H         2.25648697705018   11.26768348878844    3.70969491608492
C         2.76915442124151    8.73532196579498    4.52224032857519
H         3.20667319463692    7.73953381247933    4.53432751694724
H         1.89758416078788    8.72514659212008    3.87020950483496
H         2.42852621095385    8.97690147357628    5.52613545572689
C         8.83087842246964    9.89023658824376    3.76883213585458
H         8.56480448694117    9.97118000814791    2.70914945878035
C         9.74802061954649    8.67524559346467    3.92782776541478
H         9.19980807594089    7.75923736454375    3.72181507411471
H        10.15283500867715    8.61506162066169    4.93498606001916
H        10.58187537386863    8.74534368503653    3.23207054951194
C         9.56324854469185   11.16951872638298    4.18018290652060
H         8.94273206702705   12.04213175028065    3.98925973795515
H        10.48603172776000   11.27292224812088    3.61262347884207
H         9.81031062607191   11.14554054597851    5.23964386563150
C         6.61965971399511    6.79203005427091    1.94742723299672
H         6.41380348166354    6.02528610563256    1.19671216550501
H         7.70900496255698    6.81109476588932    2.04022769786493
C         6.05761559944627    6.28973982107088    3.28072679956039
H         6.50175440999570    5.32682634149069    3.54564585010212
H         4.97915704902562    6.15173237785712    3.22662521293951
H         6.26964847328011    6.98957649183354    4.08577070966172

