88
CSD_code = CAFSEI | q = 0 | S = 0 | Stoichiometry = C44H35ClN2O4PRh | MND = 6
Rh        9.54347646404537   -2.35080783821660   26.09015349996210
Cl        7.52769391448724   -2.25328112575853   25.09970906215634
P         8.70502118322960   -3.97068481872983   27.40393018201763
O        10.09545124953531   -3.49895609453274   24.55089703584125
O        10.24532934244876   -0.86985273478799   24.78399661839954
O         9.16791129501484   -1.13105778981306   27.68241028423528
O        11.44559671567796   -2.25702027254096   26.94360716200773
N        10.46333522159453   -2.70734007523002   23.49926947602519
N        10.31521024034338   -0.96793202785917   28.40707837103035
C        10.48832408820296   -1.39268974025587   23.66242025178568
C        10.74905132494641   -0.50260339806543   22.50738073813082
C        11.63709509273858    0.55679707936767   22.65879412143688
H        12.15054743439071    0.68255774508720   23.60033691221495
C        11.85934201799754    1.42904123594125   21.60877074157532
H        12.55776185681289    2.24443044505336   21.72618605734514
C        11.18235183006027    1.26066261172446   20.41257194586493
H        11.35446731078533    1.94349576658417   19.59377567297186
C        10.27275808401157    0.22463298619389   20.27097895260832
H         9.72908385553563    0.10550991255315   19.34575785787756
C        10.05105941405915   -0.65621293236763   21.31291524614794
H         9.32864469967168   -1.45155829486836   21.20946664005205
C        10.78536878962612   -3.42782253148576   22.33473063695527
C        11.88409324361850   -3.08717538569975   21.55199590576752
H        12.51360879519727   -2.25605258196530   21.83011056837204
C        12.16710407226799   -3.82783330244148   20.41954337541904
H        13.01617829176942   -3.56031564847321   19.80830207939403
C        11.37986789962483   -4.91516850453076   20.07610187274668
H        11.60957981900452   -5.48925326642774   19.19104324084890
C        10.30871993582739   -5.27210679101498   20.87866230853261
H         9.70134844055333   -6.12702705966811   20.62173461294417
C        10.01003537291556   -4.53544593464150   22.00881611256724
H         9.18615774725386   -4.79751136732210   22.65348146146934
C        11.44710914554950   -1.47982032925141   27.93663042143129
C        12.74666365955488   -1.09202315646681   28.52543668336945
C        13.01186386200793    0.22158529512441   28.90608330865973
H        12.24811221193703    0.97826131943960   28.80804387614021
C        14.26085144414942    0.55763438069505   29.39314726650535
H        14.46338588196803    1.57699613841727   29.68601231108571
C        15.25312231693821   -0.40439291051760   29.49915299184759
H        16.22530592846330   -0.13655265238242   29.88538055566655
C        15.00142068115236   -1.70447798441031   29.09339510410521
H        15.77837829684781   -2.45177545173727   29.15759281186081
C        13.75722607545261   -2.04616963093392   28.59705916903805
H        13.54945283690427   -3.04984985394207   28.26089684415096
C        10.11553683713914   -0.34167086505821   29.64860798620290
C        10.82371159296899   -0.73403051752170   30.78117230935730
H        11.55641729118892   -1.52319855588245   30.71793699768889
C        10.57100371369363   -0.11277168974430   31.98915951348367
H        11.12386839179846   -0.41530166476914   32.86601683263314
C         9.60658589016905    0.87815277116893   32.08444161295406
H         9.41372750896551    1.35478433290640   33.03366246170199
C         8.88283343839947    1.24404447425808   30.96197088274389
H         8.12212734722092    2.00689538079185   31.03212529085578
C         9.13102178248690    0.63619855487476   29.74601003589038
H         8.57336226247333    0.90034050155466   28.86122145631677
C         8.68449534089306   -5.61763218723030   26.63345064322947
C         8.10082837309011   -5.70242864056899   25.37169283082374
H         7.70249005703451   -4.80491941971249   24.91889552045528
C         8.03877759709697   -6.91969182325805   24.71979870092531
H         7.58793706630826   -6.98521907964639   23.74024662002902
C         8.55247475008951   -8.05810027461340   25.32094998112289
H         8.50851022631516   -9.00866671252245   24.80948268317751
C         9.11944415652027   -7.97826665068826   26.58157832139219
H         9.51175564833883   -8.86630236667531   27.05626803465022
C         9.18649182537079   -6.76278726655658   27.24094196520471
H         9.62386137137999   -6.71056410772914   28.22836269537099
C         7.00508774997312   -3.79672262407439   28.02813516811565
C         6.27279650868930   -4.93000294151003   28.36904703087609
H         6.70131414288426   -5.91262257814109   28.22959692353585
C         4.99461982270322   -4.79729475789968   28.88012502668893
H         4.42708017838805   -5.67901654216524   29.14053019824210
C         4.44187261312742   -3.53886420028527   29.05399186936628
H         3.44120555081640   -3.43990015184632   29.44891613729433
C         5.17048269402631   -2.40995139288295   28.71712046537402
H         4.73836409562062   -1.42906352514091   28.84900779814581
C         6.44975638128593   -2.53409670692208   28.20542374537444
H         7.02406853460159   -1.66133725592857   27.93279701236365
C         9.68835666832184   -4.16684716065854   28.92052472487611
C         9.20718635324042   -3.80499374176846   30.17280039873425
H         8.19370962509380   -3.44410787934189   30.27558547175326
C        10.02797786867572   -3.90553029693613   31.28341780907268
H         9.65082017875761   -3.62229909863839   32.25504149938317
C        11.32852264741047   -4.36217339398200   31.14991940543665
H        11.96583077901370   -4.44119911578036   32.01856955435842
C        11.81736130848061   -4.71038227848469   29.89943643451966
H        12.83371619689212   -5.06341685050480   29.79884611816068
C        11.00521033586272   -4.60479230636843   28.78625359721657
H        11.37582991297042   -4.85138282392625   27.79925988631781

