70
CSD_code = CAFWOW | q = 0 | S = 0 | Stoichiometry = C24H33N2O7PSi2W | MND = 6
W        16.98725161990640    8.23665114530388    9.92160137188947
P        15.00360437309622    7.34362703696225   11.07856907206083
Si       12.97033986267629    5.01965019666276   10.81757735267679
Si       12.39863981571217    8.13626432810714    9.80314523670340
N        14.29400233690379    8.23639780667041   12.28614179520044
N        13.66059370665153    9.69694487857374   14.72490997551577
C        18.61247980579439    8.88016008144670    8.97920161317621
C        17.35279921495515    6.35064283020131    9.38825055325387
C        16.59322083302891   10.08656930603568   10.56450329797336
C        15.97302599704501    8.41478105028498    8.21295053412827
C        18.00860864139679    7.97370860380200   11.62168427968868
C        13.62566134372613    6.67701283769330   10.09372299705808
H        14.08149934058553    6.44552907470642    9.12626968729876
C        12.48196187781334    5.13561044618902   12.65921989675750
H        12.32493916771554    6.16215537072357   12.97205660173283
H        13.25296731229104    4.71573153783573   13.29813125174797
H        11.56379587729141    4.58827341664735   12.85013026435242
C        11.43690141708051    4.50716083994149    9.80370140359381
H        11.09744810690079    3.52596639532682   10.11864580777462
H        11.65963265991480    4.44889365948774    8.74361325187769
H        10.60925669932045    5.19582760544070    9.93161240644533
C        14.30696303237661    3.67441481922348   10.55265274693335
H        13.88021381621378    2.79234034061333   10.08423414818044
H        14.74879592315121    3.35740428247680   11.49274289293636
H        15.11136084702381    4.02391010057805    9.91107033980802
C        11.12216322915586    8.21055732891780   11.21842149879144
H        11.60959038964917    8.39499396245978   12.16996398363638
H        10.55851913855542    7.28813391650038   11.30623436522983
H        10.41271351884735    9.01384338326788   11.04642029309581
C        11.53975658085859    7.81192402343114    8.13115425549355
H        10.84268242796759    8.61239821040509    7.90976825659545
H        10.98273769008111    6.88268140174671    8.12724371158806
H        12.25676361938881    7.77083386720922    7.31737505353749
C        13.27583084187563    9.82264180178726    9.68912575490378
H        12.55910058592805   10.63852388440477    9.72019170852341
H        13.84266957957531    9.92725865715373    8.76915095392090
H        13.95957663002392    9.94795017762368   10.52162001120223
C        15.63207910736153    6.10675535208804   12.23122937253079
H        16.26116122600009    5.26779712335285   11.98508735971778
C        15.40441226355050    6.55481850073081   13.48632118492940
C        14.59514403537472    7.77940169927615   13.47672264727679
C        16.00481482331323    5.93858838077792   14.69139055777440
C        16.42697293188754    3.83777498336335   15.70972081862750
H        16.60716187803106    4.50397575198751   16.56008986069595
H        17.38582528404586    3.43115961510705   15.37108180270598
C        15.46219765312194    2.72128818773267   16.06971611206252
H        14.51378305599211    3.13340592935685   16.40541533395797
H        15.88691070096798    2.11737672010399   16.86635445622968
H        15.27953335665347    2.09001948037795   15.20396126290938
C        14.09829052203648    8.39225550638089   14.66351587380277
C        13.83735371616143    7.80641707396609   15.89924351222198
H        14.02601247847250    6.78738033464922   16.16812576194774
C        13.24221267798394    8.77438974736174   16.70131781671682
H        12.90915632146193    8.65141667217736   17.71271280168358
C        13.15557641039983    9.93751267886247   15.95636405221427
C        13.78017751404839   10.67007010091024   13.67557166061846
H        12.92399628423199   10.61880124814713   12.99891038787641
H        14.67995714845267   10.47518825131749   13.09536313941933
H        13.84134177864642   11.66902736741894   14.10360132000861
C        12.61593366289136   11.26048397369433   16.36576905546005
H        13.40310174948512   12.01529580395332   16.38981551141955
H        12.18913754067797   11.18320239939987   17.36163609954331
H        11.84091348455839   11.59766063459767   15.67765015451403
O        19.55344174197542    9.23941842973402    8.43792667424941
O        17.52620187160034    5.25499056939782    9.10687695536821
O        16.40187976200250   11.11516607522300   11.02469825194253
O        15.42589273663405    8.42593212588309    7.20767053382952
O        18.59443280164808    7.80953452007699   12.58812826877987
O        16.56179553279855    6.53401602599696   15.57628054614817
O        15.87563008706228    4.60531013075398   14.63662222752940

