59
CSD_code = CAFZOB | q = 0 | S = 0 | Stoichiometry = C27H24N3NiO2PS | MND = 4
Ni        4.42081668341541   17.87418084244082    1.30646273273546
S         2.83088553596714   18.27411051438484    2.73339861418525
P         3.17979373183776   16.62551466461576    0.02997658453583
O         5.78290883241058   17.46562184728869    0.10786381317502
O         9.96684069802762   17.51162297762760   -2.12788506139094
N         5.48238089866951   19.11515278990663    2.25589350347594
N         4.96518410244727   19.75464716849688    3.34216941676626
N         3.10863939592064   20.07774742338565    4.66178025493745
H         2.26136413065595   19.65414265366376    4.99810867919317
H         3.67503273160141   20.58640568726458    5.31942672855357
C         3.74841407725615   19.45400672396566    3.64258827729330
C         6.71309806132079   19.43829764455515    1.96808329716287
H         7.17287952465327   20.17950940211690    2.61967349363897
C         7.49771488715727   18.92580772243864    0.90833061500868
C         8.81689047861992   19.38094410222974    0.72441786203396
H         9.20338619190978   20.12769685189582    1.40308830149362
C         9.60521597541395   18.90239328692836   -0.28171864437111
H        10.61540380561087   19.24866815757559   -0.42646442587565
C         9.10096803899702   17.92458594550772   -1.16275568520746
C         7.81562127448244   17.45791429951476   -1.01127758094955
H         7.39579199281382   16.70322468155737   -1.65695451898250
C         6.97841864872803   17.94117355526908    0.01793766725222
C         9.52950745780970   16.54416607220384   -3.04939170435448
H        10.37123214341493   16.36997273343746   -3.71817153951647
H         8.67303843428321   16.90346635895706   -3.62938165616220
H         9.26055158958302   15.60715903873366   -2.55093049337956
C         1.69659969841311   15.79941254232932    0.69784338377970
C         1.87117553244709   15.10248341195328    1.89143656900773
H         2.84666255643475   15.10794923728623    2.36398828477878
C         0.80994772856600   14.43784079653579    2.47492843731442
H         0.95139460581115   13.89840660072554    3.40004400003547
C        -0.43923158176117   14.47630913398192    1.87602873024212
H        -1.27305791501048   13.96321880119479    2.33218058104249
C        -0.62195057963961   15.18560816622067    0.70107803452625
H        -1.59950621828037   15.22791274366513    0.24296744008412
C         0.44020528851154   15.84860600079858    0.11035217189529
H         0.28556013640347   16.41179786277525   -0.79801172833632
C         2.54805914431263   17.73893578866489   -1.26386801156848
C         2.64999829929022   19.10633743017026   -1.03198010716739
H         3.11096972128769   19.44835476876715   -0.10271716627849
C         2.18845080369147   20.01105396465200   -1.97054025731089
H         2.27224148456597   21.07214067840756   -1.78817529308940
C         1.62218203968498   19.55001691000885   -3.14788214031859
H         1.26024292778495   20.25264838983402   -3.88398378193170
C         1.52761461108244   18.18791292787331   -3.38935948885291
H         1.09319627065399   17.83295485739544   -4.31278659303030
C         1.99094467986644   17.28024480113486   -2.45422248563780
H         1.93451611728280   16.21778439393462   -2.64928010100946
C         3.96437871592515   15.31294874292257   -0.95550955621440
C         4.75252238746964   15.67796248695877   -2.04412557929424
H         4.84534427043863   16.72268693191415   -2.30335998585607
C         5.41147511180521   14.71076426573734   -2.77920115166865
H         6.02073353740617   14.99730238223794   -3.62516082128655
C         5.29419960178300   13.37351219634303   -2.43428123732014
H         5.81139254027659   12.61894143541684   -3.00871130923862
C         4.51429487238264   13.00706476217163   -1.35046582267521
H         4.42153800639971   11.96549097642629   -1.07895624948276
C         3.85490413397789   13.97153698259197   -0.60856563546332
H         3.25002214801884   13.67992548292074    0.23842833902375

