62
CSD_code = CAGBAQ | q = 0 | S = 0 | Stoichiometry = C28H26N3NiO2PS | MND = 4
Ni       -3.84497036337410   -4.60719576005212   -2.49359502172732
P        -4.18859427135000   -2.91769983579921   -3.81769388026332
O        -5.56526161712529   -5.14919338275380   -2.93980630033055
C        -1.47947799887531   -5.33711653213547   -0.97489674691914
N        -0.23989589115426   -5.38072625102704   -0.44740470010198
H         0.28727266338975   -4.52262007241838   -0.48995697177307
C        -3.36654938552695    0.24136447559750   -1.43600091676248
H        -3.55371383718026    0.48932471611282   -0.40140939095912
N        -3.51281916728777   -6.15950663289345   -1.46708699889292
C        -6.20925661972552   -6.22132240304242   -2.62450815829756
C        -7.53012337620635   -6.37035454294183   -3.10030745639221
H        -7.91800644122351   -5.56078200170390   -3.69825772975611
C       -10.17172620136104   -6.72491676082765   -4.00547641292309
H        -9.64085052508456   -6.57775045772876   -4.95165297921579
H       -10.23873065060260   -5.76780794195573   -3.47810085239173
H       -11.17458765101271   -7.09844223586757   -4.20757507766520
N        -2.31768180436214   -6.30793990055164   -0.83193714304465
C        -2.42506143335081    0.79989218914065   -3.57177727087030
H        -1.87703332513824    1.48579818241961   -4.20141940032648
C        -3.56163462821063   -1.29116697434883   -3.28303649485372
C        -2.68072752079632    1.12821943017513   -2.25123427799307
H        -2.33515961257568    2.07079579888966   -1.85273839028962
O        -9.54969270918430   -7.70719522157853   -3.21520197695769
C        -4.34446495921579   -7.15063983145680   -1.29642789268417
H        -3.98223427609138   -7.97255160837826   -0.68091936304206
C        -5.65549565048516   -7.25706298227315   -1.81811696488580
C        -3.75692841730323   -2.43919286835992   -6.56425896918626
H        -4.50452445988383   -1.66147637715331   -6.48475080729812
C        -6.43982092632293   -8.39081838079331   -1.53563619211028
H        -6.01312828713504   -9.17416612085203   -0.92567498998087
C        -8.27167957348492   -7.48961381957765   -2.80019753770513
C        -5.90959138633207   -2.56510868131885   -4.29048125048100
C        -6.53655338878622   -3.45504341627030   -5.15921901031924
H        -5.97878735665831   -4.29482936717810   -5.54940934835573
C        -7.71398120639514   -8.51462681085305   -2.00974910674540
H        -8.31897087874415   -9.38016354956112   -1.79462959655367
C        -3.79848181595643   -0.96611222666972   -1.94891537581876
H        -4.31071270436041   -1.68599453240016   -1.31910129496885
C        -2.86141257677676   -0.40715595871660   -4.09146067977240
H        -2.64534664528709   -0.66260039225071   -5.11828750116277
C        -3.42426323858895   -3.19826964508851   -5.44571356637612
C        -3.13875899285116   -2.69376608694514   -7.77474008584900
H        -3.39353437587241   -2.10302563050002   -8.64281072025917
C        -1.87528905620122   -4.47391738404158   -6.77149823605336
H        -1.15005687689138   -5.26968101824149   -6.85588454599825
C        -2.19646514984465   -3.70577787302841   -7.87846820628454
H        -1.71826887634905   -3.89950341028184   -8.82738911072556
C        -2.48972407268884   -4.22099410637051   -5.55827770092387
H        -2.26031383759041   -4.81936961523765   -4.67917994535253
C        -6.62710821575273   -1.49746416895426   -3.76657350222672
H        -6.15015920204355   -0.80718697885868   -3.08504064782796
C        -7.86067465253855   -3.26946947791948   -5.50716540660506
H        -8.34363234537293   -3.96155313141331   -6.18272764099165
C        -8.57208554431934   -2.19885802969480   -4.98780072177102
H        -9.60851462497280   -2.05634227306686   -5.25729471122912
C        -7.95312250742367   -1.31489617037515   -4.12039249045773
H        -8.50642567880237   -0.48084576913727   -3.71353511400434
C         0.16195314426050   -6.37894570615136    0.50944015752116
H        -0.43705154855312   -7.26924717277732    0.33492378284290
H         0.00512163693328   -6.04365026791234    1.53972525493793
H         1.21726756889225   -6.61224336136707    0.36875470590840
S        -1.86989667609772   -3.90429368336118   -1.90874111749669

