56
CSD_code = CAGDAQ | q = 0 | S = 0 | Stoichiometry = C19H25N7NiO2S2 | MND = 4
Ni       -1.15035103733722    1.48475120014097    9.85114785358895
S         0.12642202001670    0.47082848712318   11.43532483231626
S         1.95000498543646   -0.26580617915329    7.49789075307678
O         0.96569367926106    1.69174397564901   16.20063359050475
O         3.67022969995668    3.85111696097815    9.28944108207812
N        -2.68482008909381    1.99598199054706    8.77249728749222
N        -2.28938754155703    1.87166142661603   11.29019583351372
N        -1.97512104786673    1.68256666391238   12.56741036214063
N        -0.49329637198830    0.70707677660687   14.01279675386124
N        -0.56648561085230    1.06867405243124    7.13811655145820
N        -0.11522520568747    1.16233866276898    8.34868933192892
N         1.95666543298879    1.61968978835601    9.34068973958533
C        -2.83541992260399    1.87314117896432    7.44749629878640
C        -4.03755306075011    2.27700511311367    6.83575038189132
C        -5.04924544178951    2.80202959827772    7.60635086862087
C        -4.88640588929582    2.90102656452045    8.98288402614403
C        -3.69176759185361    2.47144365201312    9.54607514825447
C        -3.42888614218614    2.42521622916765   10.96922707629190
C        -4.41607875073680    2.90435242362717   11.98350841134459
C        -0.85154975126455    1.01248591605998   12.75717698446664
C        -1.18393461343473    1.25721080881738   15.15857809583788
C        -0.26611882414338    2.27596482059768   15.84741989279414
C         1.63343990435108    1.17507461069077   15.07161793422140
C         0.77803397381316    0.11873644436824   14.36017082951969
C        -1.73000998062178    1.35427389185381    6.66775303246893
C        -1.88127249308005    1.15100175036088    5.18751073912441
C         1.24922122888012    0.88832377005754    8.45024820631988
C         3.38310843816269    1.44589270982545    9.49280532950531
C         4.10211330243639    2.60150417235102    8.78872802640790
C         2.28005891830399    4.00993593367066    9.14071954495378
C         1.52468283128733    2.89380188936998    9.87597749417859
H         0.59739991436410   -0.72062676528703   15.03979670614797
H         1.27474841827572   -0.23940000806173   13.45932798624584
H         1.86476944928105    1.98810346588928   14.36642706592658
H         2.56274340125647    0.73803592561909   15.43850646302828
H        -0.71269619922441    2.63372474225623   16.77622268265225
H        -0.10005701798537    3.12743927761149   15.16940631846148
H        -2.10729131366477    1.72708666509545   14.82560067821236
H        -1.40764958427811    0.44130074736752   15.85373893385132
H        -4.66421296273061    3.94985947794992   11.81043242846101
H        -5.33287974153805    2.31896827194451   11.92961702663153
H        -3.98614810638236    2.79659572627375   12.97531473817030
H        -5.67376989897537    3.28836992250847    9.60736401941361
H        -5.97158976055459    3.12516809171241    7.14701100705750
H        -4.15655822313477    2.17878877658106    5.77069214059902
H        -2.69648335687958    0.46259884515156    4.97016531320782
H        -2.07160028214132    2.09444615360726    4.67677780638581
H        -0.95665962272852    0.72802491764787    4.80646156211218
H         3.61816565306173    1.45460778241744   10.56170085674515
H         3.67410749083058    0.49077884404158    9.05549864380158
H         3.90680111679944    2.54066111875689    7.70818070957527
H         5.17686366218460    2.55856119173898    8.96703557470359
H         2.03599937872828    4.98751426095044    9.56043701697616
H         2.00580000245881    3.99013195334812    8.07409492332664
H         0.42761306155682    3.02210082672547    9.76423677089645
H         1.77683947267491    2.92241450447033   10.94122033473154

