63
CSD_code = CAGKUR | q = 0 | S = 0 | Stoichiometry = C20H32Cl2N4O4Ru | MND = 6
Ru       11.01246772000836    4.95289534725754   12.00249914057998
Cl       10.20741589644111    2.85838559292141   11.40408991711436
Cl        8.99395221764743    5.83468566797219   12.74111224538636
N        12.78966996376444    4.39183324685790   11.11840845942697
C        14.06689994298309    3.77726334606876   11.46354113363799
C        14.89765241458066    4.01488055403647   10.17524397293677
H        15.61206155875579    4.83967587147195   10.28607564813330
H        15.42836498313488    3.12169409131215    9.84322419449366
O        13.94370945263116    4.37533326668942    9.17889956432048
C        12.79839096923986    4.61235161293721    9.84096426231730
C        11.60571419200890    5.12323169338577    9.25552322158707
O        11.39801407868396    5.26165273386366    7.93822243526192
C        10.05582446562573    5.72857550983412    7.80220767630404
H         9.50495723500014    5.01745587173242    7.18215351001511
H        10.08027543815394    6.70141419194135    7.30152736583150
C         9.48450234860063    5.81871691463160    9.24584731774915
N        10.64958167439092    5.46505917284565   10.06054589549731
C        13.83139924300717    2.28108026965917   11.67991611619550
H        14.74412449197302    1.79867729667175   12.02102065233204
H        13.50146189593982    1.81814267497098   10.75236826701216
H        13.04585133663989    2.14182644230486   12.41393750858317
C        14.68627810326770    4.42384724371932   12.69711691672639
H        14.79855160770043    5.49742554750399   12.55673354565999
H        15.66478348931146    3.99081732073327   12.89089810931040
H        14.04649913621745    4.25352916061844   13.55930748109442
C         8.37588706515154    4.79022642151983    9.47722839874512
H         8.73268062282663    3.78444677655882    9.26394416225245
H         7.52730127155705    5.01805170184868    8.83668947795652
H         8.05900330190119    4.82850487345842   10.51787672400292
C         8.96645780414991    7.21737022206630    9.56643923521491
H         8.11313522955059    7.43890659718318    8.93040520047895
H         9.73610873913677    7.96778923462643    9.39285941023965
H         8.64403895534214    7.24307957540472   10.60516759551106
N        11.89556548591218    6.66038835384060   12.75153453243243
C        12.28960734935557    7.99788454466046   12.32263064469742
C        13.14150686408649    8.48416749319061   13.52441327818044
H        14.21792418831602    8.43468237140015   13.31985859943255
H        12.88261303846427    9.49395971484392   13.84537831624137
O        12.84157081952699    7.57817958728582   14.58360366923892
C        12.17413419086194    6.56044644793513   14.01366300648901
C        11.78173438850318    5.36486644234265   14.67908589591740
O        11.85701382168826    5.16520561496028   16.00275345993841
C        11.29108883464081    3.87521578011667   16.23500301296695
H        10.45666502875294    3.98552543510717   16.93144906228293
H        12.05883579236804    3.24057559186183   16.68840860221079
C        10.83391317537819    3.35052744244945   14.84430133261286
N        11.30392530931867    4.40863510534406   13.94666834962230
C        11.02360966101885    8.84626767101548   12.18706176446077
H        10.32492759340554    8.34942105166268   11.52346500443701
H        11.26690139351589    9.83092400369918   11.79531272332798
H        10.54017586452299    8.95081148110010   13.15608400395140
C        13.07286769408680    7.96029521322184   11.01555596186334
H        12.43821179308402    7.57715094591039   10.22044631999366
H        13.94409230281301    7.31370953426121   11.10419215428695
H        13.40432864060933    8.96211390764557   10.75282005142815
C         9.30989806794604    3.25330467472860   14.75275103720668
H         8.84842216043124    4.21347688998222   14.97541129431260
H         8.94892920773690    2.50541575933518   15.45467026168542
H         9.02649487398959    2.96227741360045   13.74286022555471
C        11.45856047655547    1.99881201196961   14.51295141067592
H        11.16423934298411    1.71293589824359   13.50535988118253
H        11.08810827078953    1.25154695810144   15.21017878369098
H        12.54381752400672    2.04115061557289   14.59003259776785

