50
CSD_code = CAGNUT | q = 0 | S = 0 | Stoichiometry = C20H24Cl2NOPPd | MND = 4
Pd        0.68493409015674    0.56200045850712   15.28361790632924
P         2.27123316784540    1.90367125775473   14.44472839267102
Cl       -0.77029266905907   -0.80315613684823   16.32102894061617
Cl       -0.37257373408253    0.30717097545380   13.33842507644254
O         4.06682575903493    3.23999629106912   18.48927630856685
N         1.79894513306757    0.83134781879925   17.13199694772689
C         2.99216835683627    2.10649581917481   12.80232974717334
C         2.08430385314475    2.38538487991920   11.78179048060390
C         2.53875443562344    2.56438332191397   10.48904420958495
C         3.89240973765069    2.45433144177828   10.21054164329892
C         4.79139858553162    2.15543220929276   11.22166228337493
C         4.34657259817653    1.97519163604251   12.51915782509227
C         3.61456833419215    1.88064276066239   15.74210695004104
C         4.36585124678031    3.16542822815173   15.51246442860064
C         5.83236389128934    3.24117361335275   15.76955994005573
C         3.81830369307957    5.56400970367090   14.83300908413907
C         3.53186189856170    4.13579742903781   15.12946206295417
C         2.11477721635177    3.62778873171452   15.13493687676120
C         1.76896015568735    3.25681955744969   16.59306886310942
C         2.64816778248539    2.03265026450909   16.96601992731182
C         3.46330436054297    2.23059919856190   18.23165598082327
C         3.39143822429471    1.01146914288026   19.11987890158004
C         1.93701157479709    0.92346319056002   19.60406611552943
C         1.01369303867902    0.94892869008527   18.37270006665062
C         2.59196355396114   -0.40420641339327   17.23818160838644
C         3.70068643305727   -0.23994302847595   18.29211641804802
H         1.02859556401943    2.43538004219979   12.01598225945114
H         1.83854602274703    2.78148235374176    9.69665228506607
H         4.24751224637682    2.59107806703513    9.19994417435579
H         5.84349493895630    2.05813724163639   10.99729215327202
H         5.04618991956235    1.73419257585558   13.30509062411464
H         4.26313331583098    1.00938188187691   15.81041546741042
H         6.32447208570295    2.30752607416208   15.50040149988248
H         6.01087904613346    3.42416774296618   16.82952819409897
H         6.28472556205933    4.05076652173456   15.20332357514574
H         3.35857124313945    5.84779202989281   13.88692433908317
H         4.88679464146002    5.74868325236282   14.77775939412127
H         3.39959816573391    6.19945644533783   15.61350297510388
H         1.37988075801733    4.28885082451462   14.67741302346755
H         1.97039875889933    4.09354359484165   17.26440105219245
H         0.70395218332757    2.99380303802451   16.64777727169828
H         4.08214210047198    1.11697586458718   19.95933018459548
H         1.81066825820173    0.00064674107916   20.17164617766493
H         1.71454966591261    1.75815528762851   20.26933900576229
H         0.29872547009811    0.12106947715363   18.38326553115206
H         0.43835088915974    1.87595893651660   18.34826307949577
H         3.00316351235689   -0.67006087815083   16.25506138661465
H         1.89340982091689   -1.19842232959693   17.51972883365002
H         3.73561527662794   -1.10903179227708   18.94970838620097
H         4.68419983664138   -0.13950403478812   17.82852214091102

