66
CSD_code = CAGQEG | q = 0 | S = 0 | Stoichiometry = C25H36BCl2NZr | MND = 12
B         3.97195321901523    8.84521446910605    2.10041192245974
N         3.86344754083295    9.31075234312617    0.75815542765604
Zr        3.43201270764400    6.65111768905493    3.34334497481057
Cl        1.53989944822991    6.58787444375608    4.76401215611862
Cl        1.96368660412877    6.51911098475008    1.50951331109095
C         2.89609694834638    9.10230863457575    3.23512299598045
C         1.53381251267834    9.40644869241043    3.00970095070660
C         0.67469607508494    9.77336361517132    4.02038348841261
C         1.13468312480014    9.86145229347795    5.33520139320032
C         2.41429772881259    9.47049838609849    5.62707307262572
C         3.29709829774367    9.03334923465908    4.61456052621163
C         4.57184448062236    8.50054160033080    4.97909507779651
C         5.47249308061993    8.06688032082908    4.01829081605501
C         5.20243032465415    8.09679828673351    2.63523851719345
C         5.42254705735107    4.99963635699449    3.03554077725272
C         4.25452531150573    4.49246340844154    2.39974813919232
C         3.27399032605503    4.24747734518458    3.40906347954604
C         3.84486660767529    4.60159064022892    4.66596039475206
C         5.16498695015386    5.06770091504032    4.43322333029408
C         6.77391659730281    5.15062398082399    2.38983233437615
C         4.12845129748066    4.03720960595585    0.97064534268284
C         1.93185417486335    3.60596048021528    3.18723392350883
C         3.27214831613598    4.34490928090288    6.03151228759693
C         6.15949632548247    5.29824232347072    5.53782484404171
C         2.91571279329622   10.34988980740919    0.36988086841883
C         3.59914248549916   11.56355903984016   -0.27343244948172
C         1.80121744279859    9.80677257393824   -0.53489700818941
C         4.66557762302344    8.79804518414178   -0.35204387459511
C         4.56405766867425    7.27465921614907   -0.46535589976907
C         6.12723577253193    9.27015256512787   -0.33180397099628
H         1.13196396165611    9.32774481212581    2.00967841109999
H        -0.35941087561281    9.99046160285281    3.79799276121890
H         0.47059689890184   10.18907347738709    6.12113459670775
H         2.76059796146598    9.46133623772265    6.65251433981815
H         4.86254798728771    8.53611296448095    6.02432835144667
H         6.46339088357970    7.76660404817403    4.35404620090244
H         6.05255268990625    7.82800176675410    2.01749909202513
H         7.30973150466119    4.19907276230488    2.43077115286138
H         7.38560936969077    5.89218931875359    2.90142650486348
H         6.69184513271134    5.43630231267682    1.34207708190590
H         3.27651367658747    4.50581623704861    0.47536190700082
H         3.97887237840284    2.95630969403943    0.94471583113940
H         5.02809971974951    4.26331177343071    0.40351700579176
H         1.98383607247102    2.53247683496251    3.38548897518544
H         1.60463574156186    3.74982258851200    2.15747908822844
H         1.18082271543322    4.04052073962559    3.84973153491752
H         3.36947565671525    5.22314435655904    6.67323840332521
H         3.80453252784634    3.51707626447035    6.50681206816400
H         2.21857299930058    4.08441702858648    5.96916924053156
H         7.12117323575288    5.62786519342775    5.15159771789823
H         6.32538598620765    4.36330585540235    6.07786552194116
H         5.79824045865786    6.03174910344304    6.26114467754894
H         2.46839534468415   10.71868180612897    1.29438760477315
H         2.86034405105864   12.34690616603888   -0.42432774697971
H         4.04171239587809   11.32895152816868   -1.23772360969610
H         4.37489867602839   11.94620701109565    0.38546853344926
H         2.14680458181110    9.67268782800772   -1.55732078597903
H         0.96387970381548   10.50009442060916   -0.55272141653872
H         1.45713957676388    8.84306113320313   -0.16571273910094
H         4.22685812787497    9.20101670425117   -1.26855514652343
H         5.16907508245822    6.92617950943873   -1.29997689582155
H         3.52915893605632    6.99042394425433   -0.63898295642743
H         4.89552487048131    6.78415281491181    0.44905079126853
H         6.57326987798858    9.11004958195846   -1.31167474846947
H         6.72351902513055    8.73598181934187    0.39980817093498
H         6.17715422405768   10.32978704187411   -0.09894666831345

