82
CSD_code = CAGQEH | q = 1 | S = 0 | Stoichiometry = C40H38N2PPd(1+) | MND = 4
Pd        9.46629525720571    1.12527248230044    3.07843796841631
P         9.99430171426262   -1.03530359777711    3.01918415309702
N         9.26770247927584    3.26712668722886    3.00681232993610
N         9.82368260521517    0.67645415638070    5.24273916239730
C         9.15119929815836    1.34758666039680    1.12544563282914
C         8.63040971869312    0.40138306584786    0.23187030360437
C         8.47788054561272    0.73022708368680   -1.08804045954251
C         8.85305985382408    2.00047726632860   -1.56969682498170
C         8.71501167130685    2.33146722026111   -2.93449768819792
C         9.09024585958118    3.55902953093605   -3.40023858378623
C         9.62565748823662    4.50889962182313   -2.51785226101623
C         9.77213297772368    4.22207503823867   -1.18945249067605
C         9.38687083961060    2.96602740116311   -0.67100902924833
C         9.51075829568772    2.60624575045371    0.69536699996825
C        10.05829566006607    3.52315398529647    1.77034033184419
C        11.54207597797770    3.18643644000834    1.97386223254479
C         7.90051447993848    3.75778520232441    2.80394590979971
C         9.84318939976014    3.96949902901304    4.15639040944662
C        10.42790861502295   -0.41811554506516    5.52654105224953
C        11.22232385079774   -1.04961240945982    4.42576783991632
C        10.26204283581325   -1.17648853196449    6.77400587905988
C        11.37628047211138   -1.68948031986320    7.43595175697165
C        11.21742994988573   -2.41947681510774    8.59889382862202
C         9.94822619583517   -2.66843598637842    9.09572358035381
C         8.83567946548157   -2.18071767308662    8.42897509317997
C         8.98726636832482   -1.43040332436358    7.27907268941703
C         8.96984026708373    1.34663833559439    6.12410358171684
C         9.36024704087636    1.76070633694208    7.39376911004503
C         8.47236676667888    2.47063475936769    8.18153654971149
C         7.19758266023810    2.75707616564502    7.72099400791521
C         6.80674691322356    2.34331299320487    6.45605645392989
C         7.69059360715337    1.65052037654711    5.65178439005732
C         8.64832524356164   -2.06285620650880    3.65815224765458
C         7.37144626157735   -1.51347147627056    3.55368129433503
C         6.28426419236590   -2.17838189689863    4.09002973991069
C         6.47103423382724   -3.39056179323682    4.73635118119193
C         7.73984766089497   -3.93861705741316    4.84313815432043
C         8.83184443077997   -3.27933038457850    4.30767811299215
C        10.82918078739617   -1.87303683202042    1.65273921773406
C        11.68110095537342   -1.07658692869591    0.89009986520431
C        12.35605794822679   -1.62276429535025   -0.18356185347827
C        12.17398382870117   -2.96068129976438   -0.50189107961497
C        11.31359589100687   -3.74810873152021    0.24633727530640
C        10.63308431717357   -3.20863490486528    1.32427971514673
H         8.35179432414404   -0.58952784607466    0.57966651651340
H         8.07368208486963    0.01073807298487   -1.78511349448233
H         8.30627843068567    1.58925636160555   -3.60421003540820
H         8.98111212085386    3.80573147852600   -4.44505047512991
H         9.92541465852975    5.47426684654228   -2.89684979581586
H        10.19642230661107    4.96709208963737   -0.53413806559183
H         9.96065330341756    4.58475523833229    1.50220360347999
H        12.05368011501050    3.93527374949149    2.57400010568708
H        12.02941324247064    3.14172396723335    1.00173838810001
H        11.63496539962759    2.19740346732813    2.45938246472764
H         7.44258519465925    3.26313427619585    1.94602628273328
H         7.90197349467715    4.83980132347365    2.62117952628064
H         7.29915622970024    3.56211360444728    3.69174462680766
H        10.78974086110835    3.51543109569779    4.45524047056747
H         9.15694127154242    3.91262101437405    5.00202040036368
H        10.01170080585384    5.02820732752983    3.92316405902377
H        11.57920048249803   -2.04892961949053    4.67909753261998
H        12.06848746003720   -0.42522412380052    4.11684023139911
H        12.36686910728469   -1.48963384877633    7.05334845463578
H        12.08567191697374   -2.79920347289555    9.11505279124900
H         9.82670867662734   -3.24470632035333    9.99958013623154
H         7.84538523821661   -2.38246926203204    8.80650908238184
H         8.11798335117490   -1.06554109888143    6.75174241912147
H        10.35697163917007    1.53953730640609    7.74612424493347
H         8.77794794945190    2.79780976160783    9.16317695059320
H         6.50886881097210    3.30489493202623    8.34444530668284
H         5.81205992902029    2.56411911167137    6.09815824594235
H         7.39961543041206    1.30877679131842    4.65221314888738
H         7.24910845036857   -0.55573163974584    3.04025596588340
H         5.29485105080659   -1.75410172139213    4.01009529242928
H         5.62555939846502   -3.90904008574746    5.16106658394622
H         7.87978105504168   -4.88099867226535    5.35031825979598
H         9.82054381664589   -3.70643154969145    4.40232661723359
H        11.78599880703369   -0.02455098527846    1.14108357468885
H        13.01583215150492   -1.00946274652951   -0.77810710635247
H        12.69724323265542   -3.38811682195109   -1.34325724608096
H        11.16674155405303   -4.78515635480696   -0.01402557940182
H         9.94727176640174   -3.81593122525077    1.89713273505896

