59
CSD_code = CAGROS | q = 0 | S = 0 | Stoichiometry = C23H29MnO6 | MND = 8
Mn        2.49164214098953    1.86062372015537    4.53020402460188
O         0.20661283575450    6.96792465160666    0.84552001906482
O         2.20858551572991    7.62964024030099    0.12251218166706
O         3.02436014255988    3.41410970800956    7.66877092828171
O         5.37512441873786    1.67958942958499    4.00490817424321
O         1.94134337661204    0.25079401703371    2.13577629977868
O         2.15294087769007   -0.19443425997310    6.59200374010475
C         3.86811461236901    4.84157217192974    2.62449924870096
C         4.21622361772462    5.69030556373465    1.40803307240257
C         3.41288276164443    5.25198670097784    0.19275712203876
C         1.89870377919461    5.28346683132953    0.43868109781146
C         1.58228535170158    4.43335958897162    1.69326108726054
C         0.09122135268810    4.30322596176413    2.00339337802514
C        -0.13889687184448    3.14034380125027    2.96303143180809
C         0.82579916850166    3.16822671435434    4.12628510915074
C         2.03827876074174    3.89631139211911    4.08362980405370
C         2.36438975140890    4.87170482223181    2.95648759850277
C         2.82072936824185    3.93338214373488    5.30516011536487
C         2.35746992690915    3.41546656089900    6.49348252708111
C         0.89327594392581    3.06258417180041    6.62507346901485
C         0.55237022405124    2.41959148381016    5.29871315405421
C         1.21240639768793    4.68271735728813   -0.80441874679000
C         1.33604333624541    6.69557097651187    0.52741309623070
C         1.98221836290627    6.26637336877921    3.47771831144808
C         4.42458370170239    3.57853453820979    7.65256111629823
C         1.71984786569643    8.96200716775613    0.08412024941794
C         0.04544954183103    4.31108914599444    6.91457517730543
C         4.23642877828113    1.74215765062000    4.18939676689977
C         2.16441993393983    0.86466371032716    3.08748677660816
C         2.32703180849430    0.58688777135237    5.76975358122988
H         4.45406985216636    5.20159831690838    3.47198923078803
H         4.16003379473194    3.80446931642940    2.43055048419060
H         5.28148762528243    5.58061956802065    1.19369525928167
H         4.03359701105928    6.74537945163825    1.61275345690413
H         3.68694891256302    4.22458077904094   -0.05953721194974
H         3.66044094002580    5.88542598649345   -0.65967618326150
H         1.94845494005573    3.42352165493339    1.45404567621200
H        -0.47153976823408    4.11359581531251    1.09159963836225
H        -0.29326536963263    5.22948381504032    2.42724825741343
H        -0.05055447032226    2.19617899325183    2.41665559268463
H        -1.15787484628163    3.18373760928707    3.35880278899764
H         3.78393507773598    4.43314362409193    5.28690061708403
H         0.76468422181770    2.35636410726990    7.45137341957909
H        -0.36680764600540    1.83421437492340    5.29701015991889
H         1.61783563539524    5.14234309874402   -1.70373660397115
H         1.39454174606873    3.61161180268460   -0.85180193033555
H         0.14049740301895    4.86000070574959   -0.79057986591337
H         0.92532132821877    6.32342537678469    3.72669644375558
H         2.55310619974987    6.49289443070810    4.37792825061296
H         2.19619831206536    7.03558156752629    2.74328528971287
H         4.76299268539273    3.35567565545055    8.66264103446515
H         4.88726639685253    2.87924373838099    6.94509310627835
H         4.70994856092992    4.60317821001281    7.39401923489364
H         2.53503317963005    9.57453132947000   -0.29242976650944
H         0.85163937169853    9.02837299852176   -0.57446550698158
H         1.42406399748548    9.28912900185759    1.08361924375152
H         0.34384694874415    4.75740129212641    7.86062422615949
H         0.17003029619187    5.04886418076465    6.12300493128311
H        -1.00651911852075    4.03965609611109    6.97340081493237

