20
CSD_code = CAGSAH | q = 0 | S = 0 | Stoichiometry = C7H5Cl2NO4Zn | MND = 5
Zn        4.51325599433763    2.59005211712303    1.97418264354293
Cl        4.79382182521686    0.59173913466941    1.10750626218412
O         1.86399751598498    4.06308390987573   -1.19820665316944
O         3.72718111196229    3.51514086002900   -0.10925439804469
N         2.30570543888427    2.59005465884412    1.97418256200256
C         2.52450871876752    3.56450673357106   -0.16393796091228
C         1.64347459917911    3.06613846550542    0.93257612172293
C         0.25204729379415    3.08863171054198    0.88529930945526
C        -0.44808818432405    2.59009828921488    1.97420017970784
H         2.48366882590398    4.37505243612675   -1.88014439332999
H        -0.25106433729993    3.48559254317812    0.01867824921363
H        -1.52726239184368    2.59011401829082    1.97420632259744
O         1.86398861695215    1.11699054303745    5.14655400047524
O         3.72718087890097    1.66486532421513    4.05757719752886
C         2.52450509948001    1.61555877561385    4.11228394700373
C         1.64347294085148    2.11398402270010    3.01579386197642
C         0.25204503940867    2.09153583822382    3.06308889380888
H         2.48365907894484    0.80497986800450    5.82847376774573
H        -0.25106885421882    1.69458628679496    3.92971409101738
Cl        4.79367078911781    4.58849446443983    2.84092599547312

