79
CSD_code = CAGVAH | q = 0 | S = 0 | Stoichiometry = C40H36MoP2 | MND = 10
Mo        0.03380180035046    2.69923306607201    3.23302048834719
P        -0.36981884730401    5.00848820270997    3.20348616740528
P        -1.64134751232572    2.89214775043292    1.57249445019980
C        -2.06341952666810    5.45340594975657    2.61628993671384
C        -2.37935578303623    4.60570589118708    1.40018262877238
C        -0.69837872622562    2.94536117331331    5.41849286361829
C        -1.73669804992809    2.52043456900846    4.53609097647133
C        -1.40803827115398    1.16857036922772    4.21092124540587
C        -0.59678173266636    0.64746077295196    5.30188169381232
C        -0.25766354360149   -0.63594797262788    5.68094977066135
C         0.53657769654559   -0.80572293409813    6.81123641750491
C         0.98726309384311    0.28403009810754    7.53713715172835
C         0.65295390946382    1.58177473810263    7.16209867908718
C        -0.14479218067909    1.75893240972549    6.04989128664316
C         2.15410596253063    2.09083647670105    4.16142306634006
C         1.66296134906572    0.97215370664290    3.47571998201898
C         1.48797146706555    1.31896566856184    2.11889458097074
C         1.90979005288037    2.66985237508858    1.95674855863384
C         2.29749011539065    3.14418158463475    3.23693067479280
C        -0.19644210925448    6.03281891902286    4.70090707655702
C        -1.10828002620133    6.99010052340778    5.13075643784939
C        -0.86502911463348    7.71091078572060    6.28871572416305
C         0.28591901668217    7.49031533151106    7.02458572007521
C         1.19965240963259    6.53613828356233    6.60397441375338
C         0.95520729552019    5.81206014822888    5.45427024985160
C         0.63535765486834    5.97693711031125    2.03173901899112
C         0.74594489378939    5.49239480647200    0.73167484098830
C         1.46802298590082    6.18521246041247   -0.22077103421073
C         2.10222121343343    7.36972961956259    0.11887911252274
C         2.00206182337133    7.85611865216388    1.41101424556200
C         1.26917143816042    7.16955908472941    2.36405662079804
C        -3.13811517483066    1.85859861018730    1.74555410532237
C        -4.30492100174395    2.26411865021554    2.38179570521916
C        -5.36278447916190    1.38269433848012    2.52793567887078
C        -5.26451431835108    0.08836094980447    2.04867933421329
C        -4.09789159483728   -0.33020321951057    1.42698881801903
C        -3.04184011613709    0.54726019957959    1.28353819499815
C        -1.43166896424381    2.58799658165040   -0.22546790372940
C        -2.54752965818421    2.72234439776491   -1.05192663854786
C        -2.44015449494153    2.52934879360091   -2.41476623488010
C        -1.21751112660071    2.19745157230139   -2.97779906171096
C        -0.10676889141869    2.05799079712439   -2.16624028900278
C        -0.21502881191242    2.25257632857011   -0.79886176201741
H        -2.12349163724848    6.52181302208148    2.38121094666232
H        -2.74511789430110    5.22434496357361    3.44428631239631
H        -1.92187346882303    5.05527216937043    0.51343638966705
H        -3.45644408739345    4.54255229786384    1.22162763471381
H        -0.76283687323693    3.87746365604011    5.97024874368005
H        -2.71055552928241    2.98705122775322    4.42970829700544
H        -2.09157135450816    0.51251608167799    3.68479262457358
H        -0.60867916041028   -1.49281235268174    5.12121695156147
H         0.79869227097748   -1.80438397970123    7.13169478316035
H         1.59799304453282    0.12410667692697    8.41471481155885
H         0.99891213798066    2.42921180959199    7.73943737391565
H         2.46390172899987    2.10834423126808    5.19570349847359
H         1.54888781326441   -0.01875895800366    3.88932675253388
H         1.29608583738804    0.60800034523763    1.32684597119642
H         2.17271660296679    3.15993730861518    1.02744741612977
H         2.81207983063792    4.08101682503584    3.40953802549005
H        -2.01148893534773    7.18274895139221    4.57170351589010
H        -1.58127959401988    8.45057406957860    6.61680913643454
H         0.46911363008796    8.05640096960723    7.92595341324175
H         2.09700078954305    6.35530054485595    7.17785533325234
H         1.64772303369824    5.04736705997280    5.13071807308598
H         0.26485053535246    4.55642030722959    0.47798743013355
H         1.53925777431930    5.79960475052565   -1.22799931266797
H         2.67457760295160    7.90995168831819   -0.62079873098552
H         2.49795312555133    8.77715809627106    1.68161323686244
H         1.19655883183182    7.56344948268854    3.36769540913902
H        -4.40008050660828    3.27151671663435    2.76552681709457
H        -6.26784124940025    1.70873903298468    3.02062179263070
H        -6.09270533978388   -0.59533731161515    2.16306139070450
H        -4.01427624278794   -1.34268932242742    1.05912124570504
H        -2.12084393241269    0.22757219426883    0.81204056317197
H        -3.50778606522462    2.96702783394067   -0.61927847097807
H        -3.31307011222527    2.63453806020249   -3.04275015011042
H        -1.13490086786247    2.04582123147285   -4.04400107396618
H         0.84949388517773    1.79628272989766   -2.59623273339461
H         0.65304425316302    2.13907996917903   -0.17230641074895

