60
CSD_code = CAGWAL | q = 0 | S = 0 | Stoichiometry = C26H25O6PPdS | MND = 5
C         0.73273116444199    1.23941164095817    1.99466084442172
O        -0.02734026414293    0.56272817676489    2.89478916177723
C         3.11603190708025   -3.81303580723506    3.84148979805121
H         3.44500226196032   -4.51262738857523    4.59431288890858
C         2.72438715736172   -4.28385267604784    2.59522105815316
H         2.76339930661133   -5.34475655341662    2.39794078128006
C         1.57237831287922   -1.27753490328617    8.76193977210770
H         2.09628214581227   -1.95578700585746    9.40752132516167
C         1.37247207767592    0.05904599064996    8.82535090643258
H         1.72737069870490    0.72858718744094    9.58346105393939
C         2.11184534350961    1.10375468917443    2.19097460771019
C         2.24173272156632   -2.05126961871909    1.86635717295917
H         1.90730825107590   -1.36112254987920    1.10488423603303
C        -1.42667413961567    0.61696672374686    2.72629317660037
H        -1.85537408149633   -0.05180901720247    3.46936770212207
H        -1.71765052831667    0.26949194835421    1.72910167214126
H        -1.80790774614276    1.63013795473239    2.88570170825109
S         3.55248223299460    2.34761141501366    5.51206840213860
C         2.52008254985416    2.47911327649826    0.26747337062265
H         3.21188213683720    2.96438757130175   -0.40393374639305
O         0.97188718962799   -1.82640498344522    7.66934651539602
Pd        1.63490690511944    0.24502898241782    5.73794272935132
O         2.39925182312922    2.45328005003066    4.60309674666178
P         2.58792277713461    0.17880379977135    3.67520341462144
C         6.15581806817892    1.86809904332321    4.64562459132240
H         6.43670951844462    2.68823098364956    5.28755713169096
C         0.25704445102038    1.99993411019939    0.93547404159953
H        -0.80017110677225    2.13774343067859    0.77168403624683
C         3.93003680714549   -2.61387027835602    6.32466519498515
H         4.84872221537444   -3.12380832367240    6.01574972083176
H         3.20251151216715   -3.34793519264031    6.68650535764019
H         4.15434998718880   -1.89940268783080    7.11757415759616
O         4.06575991922651    3.60473610583884    5.98144372861829
C         0.36320319367051   -0.81363118921038    7.00636903801048
C         7.08844916756269    1.14034618724668    3.92277229564336
H         8.13832064725445    1.38440112207628    3.98838503934220
O         3.39970134216390   -1.84117293108572    5.26852151647804
C         2.64493652840862   -1.55784297999016    3.09405065298929
C         6.66779573854165    0.09352699997710    3.11540098804813
H         7.39329643537775   -0.47491897405749    2.55115038076279
C        -0.07438631789468   -0.89498287405738    5.65128437469203
H        -0.89828273675814   -0.21471909044469    5.41613710073376
C         2.28521844510249   -3.41479581625465    1.61353117730682
H         1.98087489271288   -3.79661388797881    0.65075694890113
C         3.06726866602085   -2.45132549561972    4.09506759221179
O         3.32074352430522    1.37203487045038    6.59235195674872
C         4.81952232517378    1.54533247313169    4.53898687047757
C        -0.17569179663638   -2.24142358876574    4.98372283980660
H         0.62099366240785   -2.90014996165981    5.32124116682076
H        -0.10749904410426   -2.13440028854144    3.90301761277618
H        -1.13137625384954   -2.71337645123141    5.22410526709477
C         4.38097305830801    0.50296202195113    3.74018641278041
C         5.32434417164570   -0.22994875553762    3.02115113430682
H         5.00657881296757   -1.04689861565204    2.38830142917924
C         0.60053045443361    0.41449957049587    7.67506019350577
H         0.03275303022954    1.33486417209366    7.55764550894467
C         1.15764537023915    2.61339168480523    0.07778604330292
H         0.78194249921261    3.20669150040844   -0.74274002987846
C         2.99728540045437    1.73301785480596    1.33357813307579
H         4.06046720741810    1.64385634826819    1.49893509695871

