60
CSD_code = CAHBIW | q = 0 | S = 0 | Stoichiometry = C28H27ClOP2Pt | MND = 4
Pt        0.41948485508659    3.72459072634933    3.77240392611225
P         2.03099686523754    3.71512033565706    5.38031460926645
P        -0.04647265208032    5.93966676322405    4.65887029066942
Cl       -1.31136875550146    3.72237994965563    2.24924666614662
O         0.75846939348456    0.94303197243857    3.73222027846253
C         0.97884637616361    6.12719092827689    6.20002995157302
C         2.32305198688372    5.43799970775264    5.99263273379268
C         0.93207869066325    1.93152682338720    3.06926373592196
C         1.53911512866674    1.91328133615660    1.68761644044499
C        -1.50712907835449    6.97226987555474    4.96550125859436
C        -2.28045308456440    7.26514515106113    3.84229598695922
C        -3.43982125826617    8.00352324815130    3.96892905656125
C        -3.84629016318103    8.44353865161876    5.21967302199895
C        -3.09602504316302    8.13153611673044    6.34079164833500
C        -1.93245350312243    7.39138892108873    6.22068498040906
C         0.90019582185599    7.02144200712813    3.53740553294609
C         1.59049099216985    6.43805740165971    2.48072471106477
C         2.34357240289350    7.21983953865978    1.62345486733745
C         2.40843995915902    8.58975085493885    1.81770047664116
C         1.71544064589903    9.17744558207751    2.86496726490102
C         0.96207171640890    8.39897175903964    3.72366602730570
C         1.30164169767038    2.92534577209839    6.84146902231791
C        -0.03907061564454    2.56057084647663    6.77861822319695
C        -0.64970124674143    1.98119414932412    7.87590663168536
C         0.07744607795338    1.76459318919722    9.03523981913009
C         1.41549962748235    2.12323077891151    9.09877502324461
C         2.03102084046918    2.70308134089906    8.00514615518759
C         3.67584832022790    2.95713499270072    5.28705884211291
C         3.72076045998543    1.56327232725354    5.27703487512825
C         4.93186512421059    0.90955103257974    5.16188406802449
C         6.10581184853376    1.63865648377663    5.04681211312176
C         6.06341918394676    3.02253405194230    5.03839657159550
C         4.85295372219730    3.68453938041465    5.15206595590185
H         1.11507084412969    7.18649214866465    6.43780435978704
H         0.44150846911726    5.64396540541390    7.02288240741988
H         2.90508968473465    5.40995724283187    6.91983120887678
H         2.89580645847623    5.97616347696480    5.22988684286881
H         2.39335500972626    2.58993844469994    1.64887568860101
H         0.79013851554345    2.26546554588791    0.97848102843943
H         1.85112963422794    0.90330457108068    1.42342432548840
H        -1.96141635191655    6.89833080426395    2.87528560487260
H        -4.03208121016214    8.23238329495797    3.09540129614268
H        -4.75307114627599    9.02124663359294    5.32145174105770
H        -3.41946501866018    8.46399588336168    7.31681932120946
H        -1.36055280605073    7.14708292969770    7.10423417661686
H         1.51092912929418    5.35897727568573    2.32800422375081
H         2.87458760915430    6.76350090627173    0.80115494483241
H         2.99341315950682    9.20340417357900    1.14849446208722
H         1.76067341813917   10.24724957664348    3.00909105437560
H         0.41031597154292    8.85801189389065    4.53311334936466
H        -0.59118118610119    2.72195697667434    5.85222011977529
H        -1.68900655921835    1.69333987883639    7.82604230477501
H        -0.39649321891777    1.30880210229201    9.89204368340410
H         1.97986663619149    1.94624834576737   10.00281604659179
H         3.07801614333086    2.97374006577997    8.04450317013305
H         2.79749860249617    1.00510367234562    5.35391988876889
H         4.96218963121387   -0.16965073008987    5.15866073661506
H         7.05304964033588    1.12794647251257    4.95754293975839
H         6.97695740799007    3.59086268100972    4.94072816517660
H         4.82993519552802    4.76447833121518    5.13628614312550

