56
CSD_code = CAHCOE | q = 1 | S = 0 | Stoichiometry = C18H34P3Pt(1+) | MND = 4
Pt       -4.54258784066652   15.49126157249085   14.97890466028924
P        -3.04717249295754   17.12483235186296   15.70061104231529
P        -5.64931147552793   13.68807290983105   14.00711033994634
P        -6.44451770432230   16.32025400851531   16.22168850021594
C        -2.67675128668814   15.82519628834081   11.44539005163440
C        -2.79545025360683   15.32342434941467   12.64135410899586
C        -2.96146876100667   14.85778623168482   13.83786923365976
C        -2.13589278817609   13.88160740205473   14.53628828526050
C        -1.00674374225615   13.31260630259670   13.94293468925798
C        -0.24563894682917   12.38873001067944   14.63212487664265
C        -0.59309749608955   12.01467933691613   15.92135048692016
C        -1.71075823878635   12.57164165400857   16.52211895671254
C        -2.47539783675829   13.49630991916301   15.83713014840535
C        -1.37332804115084   17.19046739767580   14.97354175654622
C        -2.62265035293464   17.02280150992220   17.47796954579143
C        -3.56837434745441   18.86317938867971   15.45826625798380
C        -7.19048130385402   14.07972670774715   13.09964668051523
C        -6.13947112965075   12.38076557288417   15.19044999248027
C        -4.78826125651853   12.67956164985648   12.75165512316931
C        -6.29320461148493   17.31013793028840   17.76239821551103
C        -7.84781646097282   15.25830867222006   16.75052125756356
C        -7.29521038860038   17.50875606447469   15.11733491588022
H        -2.10040870271280   16.71647707530398   11.25160818520143
H        -3.13022145728187   15.36379163758122   10.58191470353604
H        -0.73861637102967   13.60571548965881   12.93865744985310
H         0.62471484035258   11.95580389965820   14.16304538381971
H         0.00426088562833   11.29245061711959   16.45552152044390
H        -1.98397148232506   12.28248566470944   17.52639745647269
H        -3.36176201742374   13.93632691128564   16.31766208134338
H        -1.43981558514745   17.38520603588917   13.90583353327044
H        -0.80710752405115   17.98732375849968   15.45506854913450
H        -0.86079846813522   16.24227920277587   15.12230325615507
H        -2.04117542150091   16.11621390554464   17.63984433133246
H        -2.02294054083272   17.88610963279992   17.76282213895684
H        -3.51338442898406   16.97948595414828   18.09823072386098
H        -4.50693263545493   19.07286436139928   15.96453719411686
H        -2.79815374772502   19.53394221886149   15.83689385926625
H        -3.70078624476513   19.03868651761071   14.39141184335718
H        -6.94664329731885   14.75319661285427   12.27896644986267
H        -7.62053012659291   13.16478021640784   12.69413559644114
H        -7.92021333562627   14.56461500681933   13.74272928838861
H        -6.68375159419321   12.79240582101970   16.03562867503178
H        -6.75836804891175   11.64082500813163   14.68495902332752
H        -5.23631885391138   11.89711773784755   15.56005906858240
H        -3.87022704664591   12.26691310614848   13.16491703926291
H        -5.44235205131038   11.86582008598595   12.43953973973667
H        -4.53585052545936   13.29428490100538   11.89097462759949
H        -5.58185313491179   18.12323995156040   17.64335900472286
H        -7.26606624669843   17.72582483767894   18.02255998383275
H        -5.95893765874498   16.66578736609450   18.57419921530451
H        -7.52155266596522   14.60408597599344   17.55766727567323
H        -8.65981991176910   15.88660562272009   17.11498847878707
H        -8.21470219573906   14.64763145084091   15.92965526268534
H        -7.60537369405741   17.00446453345985   14.20429296096546
H        -8.16876871365941   17.93063369886715   15.61241709083071
H        -6.61188524081326   18.31039795241585   14.84423988315850

