24
CSD_code = CAHGEX | q = 0 | S = 0 | Stoichiometry = C5H14Cl2N2Zn | MND = 4
Zn       -1.23015828295036    1.93099998729409    0.26715206147579
Cl       -3.29717731227814    1.93100006680516   -0.53427742034447
Cl        0.82395653839823    1.93100002050190   -0.46594060102357
N        -1.44406441864302    0.36164143144217    1.74714688960387
C        -1.05270657917348    0.65627431151577    3.13025307074837
C        -1.69579268615931    1.93099998780389    3.70930710136462
C        -3.20999240085232    1.93099994375495    3.48584151004060
C        -1.41009301485373    1.93099998615000    5.21756073247331
H        -0.92941722123419   -0.45993658655818    1.43814139504025
H        -2.43138527412195    0.11383260845693    1.72252517587058
H         0.03368627005691    0.77008028303901    3.14852310451691
H        -1.31740921281574   -0.18659919370261    3.78332501967227
H        -3.46616165356929    1.93099994484428    2.42947590322736
H        -3.65402353035231    2.80998622456173    3.94779703259727
H        -0.33920600481527    1.93100005252996    5.40580915618830
H        -1.84131758340583    1.05168556312846    5.68867414657355
N        -1.44406436956753    3.50035861014803    1.74714686136383
C        -1.05270656561566    3.20572566194846    3.13025303662957
H        -3.65402362477071    1.05201372273014    3.94779707120302
H        -1.84131769021490    2.81031441683494    5.68867398860377
H        -0.92941715309315    4.32193664141936    1.43814144135204
H        -2.43138522043305    3.74816746065428    1.72252516102100
H         0.03368629144392    3.09191975221180    3.14852314408668
H        -1.31740930097891    4.04859910248500    3.78332501771531

