74
CSD_code = CAHHOI | q = 0 | S = 0 | Stoichiometry = C39H30NiO2P2 | MND = 3
Ni        7.81597387093814    0.16235355313248    9.95554233335894
P         9.97537243920122    2.26517320198554    9.25471853056525
P         7.42017228427599    3.08299485515487   10.38795155605375
O         9.37430549927573   -1.24687435476949    7.94832651496642
O         7.41705757028894   -1.06838655577494   12.53627233801534
C         8.72233868182384    1.95676863768670   10.39741838238436
C         8.60284764811038   -0.70605823635094    8.60655529514489
C         7.32522035762960   -0.59202221060027   11.49499353189628
C        12.64832455507671    1.50363631887560    9.37382776654753
C        13.69199524211954    0.68185633093121    9.75693917228436
C        13.44178719494855   -0.44850957130331   10.51916241973140
C        12.14669722978514   -0.75573168415178   10.90464590765525
C        11.10033248851803    0.06419297142594   10.52525160574587
C        11.34549608556669    1.19076342188463    9.75237935778762
C        10.98739873116117    4.71426117294903    8.24090604288421
C        11.56544925200226    5.95884414747038    8.41806766198685
C        11.88292961547689    6.40525961190407    9.68988781684956
C        11.62428295413792    5.60792831920737   10.79425606481222
C        11.04768321948315    4.36525770316228   10.62358738059850
C        10.72934509463572    3.91613173294078    9.34665673805409
C         8.59933972196250    2.42295111448019    6.87280981060047
C         8.32505981015390    2.16216794530851    5.54528484856205
C         9.22649692054976    1.42749081968170    4.79105090243674
C        10.39484046374769    0.95968731516910    5.36982526811890
C        10.67443775770475    1.22240435260004    6.69909750117834
C         9.77749483776663    1.96814611584255    7.45638788123254
C         8.01027110195065    5.55709295743314    9.18759770372875
C         8.40757295871678    6.88014685567665    9.22246990415778
C         8.64671915048086    7.50320731324775   10.43624703844411
C         8.49510063192056    6.79816348567330   11.61870393748599
C         8.09636904615116    5.47517124101256   11.58953170450324
C         7.83585611827277    4.85157171332928   10.37375948552000
C         5.74248175710842    1.57543802779991    8.84617032333771
C         4.71535488581249    1.29884640591504    7.96557851501277
C         3.97001505136697    2.34001431139000    7.43366018409355
C         4.24272250078761    3.64835248559963    7.79861845017301
C         5.26680921075092    3.92929863219715    8.68616350516651
C         6.03001729730384    2.88875538393602    9.20565602732198
C         5.26724722803579    3.30264948958044   12.15988818259406
C         4.64909517735267    3.11662843030492   13.38300878475824
C         5.32134499618478    2.47680728634436   14.41202916944911
C         6.61919247999803    2.02805195004319   14.22424487704694
C         7.24352606747789    2.21428030932981   13.00537130606511
C         6.56442030081306    2.84159258022996   11.96778385991512
H        12.83662885614230    2.39131438083546    8.78262788431929
H        14.70290557176456    0.92245725561251    9.46057986967461
H        14.25931227934504   -1.08988825869681   10.81421379613830
H        11.95195694957630   -1.63535174882220   11.50005315550581
H        10.07384249956390   -0.16929253056861   10.82461884747127
H        10.74063716022630    4.36003529071262    7.24892477149539
H        11.77049314668318    6.58231095874453    7.55967014573791
H        12.33508649830131    7.37725175599320    9.82163282719827
H        11.87527129324972    5.95753875127506   11.78497850357073
H        10.83178551722340    3.72375241123848   11.46909670371615
H         7.89132319681841    2.97281324308246    7.48174137083540
H         7.40561436094587    2.51920680430228    5.10341710825189
H         9.01187775274844    1.20948343657330    3.75518025628295
H        11.09031290512599    0.37584371355960    4.78456533121005
H        11.58076623971156    0.84214929067998    7.14766453165627
H         7.83368393000448    5.07304212104099    8.23642671151383
H         8.53493424463324    7.42638155956759    8.29911882180671
H         8.95587278453121    8.53764549495169   10.45896054329778
H         8.68810950378458    7.28102272365745   12.56550795082006
H         7.97896100212063    4.91659013394400   12.50852808230330
H         6.33678282805390    0.73271466575422    9.28596115243383
H         4.49655009665662    0.27750394215905    7.69074503671897
H         3.17240609696583    2.13060611434652    6.73608842006725
H         3.65273718205885    4.45719725152408    7.39157478526806
H         5.46633579846329    4.95137252754451    8.97817744704999
H         4.74319834764428    3.79594816313914   11.35197756894251
H         3.63814932370176    3.46736534556547   13.53303903044843
H         4.83097001968455    2.32683492085676   15.36279608060395
H         7.14180701595400    1.52969059222200   15.02746343683067
H         8.25509211145950    1.86830380127011   12.83318424063436

