65
CSD_code = CAHHEB | q = 1 | S = 0 | Stoichiometry = C24H32MnN4O4(1+) | MND = 6
O         1.62760252478531   -1.02539429755204    9.05934903840434
C         2.01493886624416   -1.61540150905795   10.14802053538421
C         3.19446411797356   -2.42361302424375   10.13176672947630
C         3.58965453935397   -3.08992848627653   11.27026349550545
H         4.48417757669383   -3.69111709816983   11.27407706629312
C         2.83020488283869   -3.00436770856611   12.44160829404101
H         3.15714290454806   -3.54691494452857   13.31420779624312
C         1.68851097013619   -2.24855658637915   12.48501853088085
H         1.10191571373430   -2.19275310729254   13.38900962823962
C         1.26966874707403   -1.52377414066644   11.35536956527244
O         3.85858904860345   -2.41521516593689    8.93978437339143
C         5.04856176274538   -3.16568641186466    8.83410354222804
H         5.81039222254699   -2.80315428279618    9.53025608997668
H         5.39665884760632   -3.02542977778915    7.81237397971441
H         4.86771215279058   -4.22911390440949    9.01205489722114
C         0.02713706850586   -0.82611814217125   11.34787251157086
H        -0.64359330480149   -1.04953704269747   12.17965732502055
N        -0.39045363716303   -0.04577273269968   10.39765170701017
C        -1.81509921056316    0.23996628304479   10.39330997987192
H        -1.98291828273080    1.28835899632461   10.14152613756984
H        -2.24573671979325    0.04502694048403   11.38310049431066
C        -2.52881636908714   -0.64939270914432    9.35982749943575
H        -2.27963126265237   -1.69627164531643    9.55782759163912
H        -3.60474091051855   -0.52799321893099    9.48979899401379
C        -2.17382953512838   -0.28915610515226    7.91832617924432
H        -2.81648681892323   -0.85973025906170    7.23299118437594
H        -2.35609469488526    0.77821744668301    7.76104770310263
N        -0.75968320774415   -0.54739175482682    7.62595436764533
C        -0.39941931302700   -0.17907763891873    6.25370526536949
H        -0.75321181085267    0.84167215869725    6.07977045980879
H        -0.87562553164540   -0.84201564138876    5.51901311259804
C         1.11766490624747   -0.22799919879391    6.10077829442340
H         1.48216581622738   -1.22336212126390    6.37232911940051
H         1.39931092478605   -0.02725989271652    5.05854541518641
N         1.72903654597640    0.73629032177373    7.02002311869926
C         3.18530063343315    0.58044109135679    7.10180188923419
H         3.64127960740132    0.72112426289941    6.11155677867717
H         3.39191328598021   -0.43931957679315    7.44023096519218
C         3.80625254165007    1.56877760265252    8.08737696930886
H         3.54672443525445    2.59383585722117    7.80606294494413
H         4.89098053869858    1.46880887032012    8.03589062424857
C         3.36971640976386    1.32112647298853    9.54228668369402
H         3.54220289315307    0.27370553266416    9.79501759005042
H         3.98138299673051    1.94622136899492   10.20438657291063
N         1.96210171682659    1.64356186875492    9.70189463124755
C         1.70143090772166    2.79758423382515   10.23728223730179
H         2.51123489515315    3.35286409294371   10.71454636480414
C         0.45093195119793    3.47683662664442   10.16167755306355
C         0.22753924225895    4.66876933273755   10.87320346762267
H         0.98002952322253    5.01311944385667   11.56561121548212
C        -0.93169091099670    5.37693479265364   10.69620287129510
H        -1.10631430723000    6.28305572809738   11.25399088208797
C        -1.90424996729604    4.94578026339222    9.78816572167678
H        -2.80369042528026    5.52863253668424    9.67477261552344
C        -1.70971037625367    3.80070670148003    9.04835978002215
C        -0.51936777525621    3.02812094672435    9.22418423664303
O        -0.33014760582222    1.97045372301012    8.49710320213816
O        -2.58795048614660    3.27179535809614    8.14813079353057
C        -3.79638203133775    3.96048636089827    7.91186602647181
H        -4.40492854990567    4.01976834656495    8.81883922981342
H        -4.32571184015913    3.37851122281079    7.15942505322594
H        -3.61345275863388    4.96760777546813    7.52773661803333
Mn        0.65431242246851    0.48797140361252    8.84508663927326
H        -0.59348086131041   -1.55213164715770    7.73441827914106
H         1.53177436481131    1.67611580819974    6.66387154075978

