34
CSD_code = CAHHEY | q = 0 | S = 0 | Stoichiometry = C11H15MoNO3S3 | MND = 6
Mo       -0.45625359682375    2.45331618738386    6.35926696970386
S        -2.29098065607179    0.78861289905513    6.22360114179277
S         0.37228936659363    4.62195509439900    7.12291911846460
S         0.04871865443895    1.12120929385620    8.87674662226629
O         0.73176606863651    1.36844137435524    6.80228457750192
O        -0.40613633354453    2.89069056628623    4.78143599547220
O        -0.89231825329277    2.23108779155802    8.43887462747159
N        -2.26584120237499    3.72342255910842    6.52356154570748
C        -3.48488527737851    3.20580460671896    6.70095595848606
C        -4.63355931036070    3.96676228084008    6.51262978397703
C        -4.50923329131483    5.29136466210610    6.13036984673625
C        -3.24169747291770    5.82001369094326    5.95838540882577
C        -2.13547795952684    5.00397504420694    6.16600451636043
C        -3.54471734143636    1.78172044593187    7.12483076877170
C        -0.74461865905211    5.50819724500285    5.98857076202729
C         1.62871403222458    1.96721343987665    9.26080711433781
C         1.79452821888480    2.05126272495384   10.76762245045533
C         0.38751943114809    2.18885067218886   11.33686662020362
C        -0.40310040473749    1.07691027215518   10.68055631449611
H        -5.60203012947613    3.51736848484179    6.66180307966815
H        -5.38493376428405    5.90198028679564    5.97130434389369
H        -3.09956266973727    6.84716822733546    5.66299452408014
H        -3.31201001481555    1.70236756073823    8.19256718672965
H        -4.52238048923843    1.34218161646507    6.92938187085450
H        -0.40481907300419    5.28766509538989    4.96870527549073
H        -0.67104880620910    6.57865809694223    6.18744427056433
H         1.53195229503555    2.95239684676327    8.80176581996248
H         2.41688780446380    1.41326746637899    8.75797823052482
H         2.25701094925820    1.13905561617518   11.15048168810088
H         2.42584801857870    2.89705602554030   11.04026804577380
H        -0.03342195173159    3.15267849024747   11.04483375001312
H         0.37845168272965    2.11637016498462   12.42535748856291
H        -0.11026883558148    0.09793061937715   11.05587831386413
H        -1.47949102908035    1.19254455109694   10.76384596885601

