70
CSD_code = CAHJIE | q = 0 | S = 0 | Stoichiometry = C22H37N4NbS6 | MND = 7
Nb        8.83947464479854    1.63290999341003    5.71681611090879
S         6.37915959272946    1.02527493974553    4.83399848170394
S         8.75218518146837   -0.08969858056551    3.63529888584617
S         7.26008786165354    3.11608007784914    7.23803969723763
S        10.14322135177351    3.16651383786997    7.45125379577146
S        11.22268810931407    1.76311552989200    4.72259888653846
S         8.99437281039394    3.57453193439612    4.13314205917441
N         6.44656445828927   -1.40197592752957    3.75903317986504
N         8.58140216354405    5.01111096714747    8.54643837901948
N        11.41500340161663    3.86760986455984    3.13082437305057
N         8.78817588139538    0.17853382405039    6.73156624187916
C         7.11299232966690   -0.29401041329520    4.04962756241325
C         8.65170240500059    3.89563211377526    7.82208809914147
C        10.61587545091539    3.14232603928881    3.91514568338494
C         8.58252488697550   -1.02744336905066    7.25214995621566
C         7.28447909519041   -1.40983615872249    7.64234703910563
C         7.04366222015219   -2.69013622924030    8.08898793413140
C         8.06805628633676   -3.62896106268734    8.17337717391154
C         9.35444486016235   -3.24718982740144    7.79956482166547
C         9.61959658982291   -1.97375497889650    7.34810963059159
C         7.80455962854774   -5.01585362043526    8.67642478841901
C         5.06220870624913   -1.56213185438564    4.15496752158840
C         4.11717936576402   -1.04464900592721    3.07516540313801
C         7.12683657997907   -2.54300641298831    3.17881346667645
C         7.80157860400438   -3.38122155918063    4.26095294823721
C         9.79446888895821    5.66925558281540    8.99028588075943
C        10.43137826999505    6.52443357171286    7.89773265804412
C         7.29496223068857    5.62111132327757    8.82125977795902
C         6.79881026793005    6.48930272276858    7.66819268201104
C        12.80429536985813    3.50661636599335    2.93904045891124
C        12.96665408865433    2.49795637073964    1.80578313360925
C        10.91798844505538    5.03745451634669    2.43601600179137
C        11.01317720832697    6.28610848770772    3.30884437973270
H         4.88596231561418   -2.62244595752588    4.34537085503105
H         4.90226170296119   -1.00115511206375    5.07946075875399
H         4.28881157015890    0.01663353817481    2.91888781451539
H         4.28014901995902   -1.56919505975913    2.13644770951937
H         3.08629214226185   -1.18975804461421    3.38453778316024
H         6.38867960219186   -3.13272430597829    2.63151671455770
H         7.87870206865253   -2.17500328472933    2.47712963834370
H         7.07386759630045   -3.73987103894585    4.98503242901827
H         8.30277460352099   -4.23339059997674    3.81169562693861
H         8.53735136863900   -2.77810126774412    4.78795668799231
H         9.54654310056194    6.28499673543923    9.85694704284763
H        10.50434206686585    4.89549577124033    9.29806185584067
H        11.36140569073688    6.95014249821148    8.26375446367490
H        10.65342767295895    5.90879410494680    7.02994866504269
H         9.77091696437006    7.33320161465056    7.59678196739740
H         6.57524865890343    4.81694125726693    8.99942999268574
H         7.39203433172283    6.21675659845307    9.73133193423152
H         7.45841860042731    7.33700481726257    7.50204753974033
H         6.74485497885714    5.89912972597066    6.75713255813718
H         5.80401930801871    6.86172141035505    7.89554837774583
H        13.36169084442823    4.42105941466596    2.72296972359157
H        13.18215852070102    3.07566700024328    3.87036345617376
H        12.42029928638382    1.58756533402692    2.04009506421613
H        12.58563595315231    2.90351729364482    0.87074815280367
H        14.01676398037334    2.25074954463177    1.67953225066117
H        11.50543488827881    5.16226999189106    1.52389120647685
H         9.87477976352082    4.86449165951314    2.15596288926973
H        12.04080260463389    6.45977834174040    3.62132420085885
H        10.66142938545882    7.15266044859449    2.75597831721150
H        10.39580254376177    6.16748138221637    4.19625575691650
H         6.49649962947152   -0.67025724462481    7.57111080642615
H         6.04085383430363   -2.97188302174439    8.37995270048957
H        10.15800156488375   -3.96757907445218    7.86307600109360
H        10.61281579338878   -1.67178966204207    7.04454023861759
H         8.10204396932384   -5.09748744128243    9.72248677654191
H         6.74780535472673   -5.26232877858303    8.60579450125533
H         8.37735148424214   -5.74739765208045    8.10991044977482

