75
CSD_code = CAHKEE | q = 0 | S = 0 | Stoichiometry = C29H38Cl2N3O2Rh | MND = 8
Rh        6.10849817279771   13.33414825965849    4.15836786661212
Cl        6.84815889639792   13.05139225071404    6.38142846456202
Cl        7.31240343804431   11.47243748728408    3.46439451868637
C         4.54129204897179   12.15844844777216    4.65081036997262
N         3.81422078897483   11.38246714369537    3.87372356192311
H         3.01118964338329   10.91352107147992    4.28595842695615
N         4.09805696020265   12.34120674172958    5.89583344773463
H         4.73301328764528   12.81898365351339    6.54781514479271
N         2.89506132548382   11.81646187090364    6.37457481876077
H         2.93711779476118   11.17708225516234    7.15735174095878
C         1.72048466762948   12.48071659555490    6.11999500462901
O         1.63468177285408   13.36081824243949    5.29978854687762
O         0.74563403019514   11.94886925928643    6.85529392857884
C        -0.62531929520263   12.41434754116013    6.70826659469073
C        -0.71857135014377   13.89082247889743    7.08853945610897
H        -0.14855707137313   14.49835951925086    6.39090364390982
H        -0.32607692926281   14.04406413585643    8.09156352533747
H        -1.75686540577327   14.20863332257757    7.06461729730557
C        -1.10982834173312   12.17864910140925    5.27847603702317
H        -0.55826523446221   12.80471121788896    4.58250056614905
H        -2.16563952131054   12.42339728994634    5.20799733378292
H        -0.97220856688260   11.13499715382671    5.00270137576209
C        -1.41265319654628   11.55231693636956    7.69380016868555
H        -1.03103355040673   11.69518193347450    8.70111355692969
H        -1.31547985844403   10.50181285912621    7.43317428447080
H        -2.46229800808667   11.82839323057834    7.66987979286597
C         4.10155671819519   10.97394257508714    2.51444616183523
H         5.09548776596797   11.36173022340238    2.26200539061626
C         3.07815113683851   11.48854694719446    1.52810710049057
C         3.30140790225194   11.25834310851791    0.17415331904883
H         4.20288240502466   10.74700195546890   -0.13033664806160
C         2.38265849557215   11.67381100666760   -0.77090978248731
H         2.56892055019295   11.49030042819687   -1.81870370559846
C         1.22445426566085   12.32377445535259   -0.37493552108164
H         0.50431522772643   12.64676717695567   -1.11193002986202
C         0.99710549199465   12.55816618162272    0.96912987339778
H         0.09916383539347   13.06863805348855    1.28551772168920
C         1.91739091777097   12.14241243575898    1.91831037809662
H         1.73120250616126   12.35286471980647    2.96059903168451
C         4.13823851563888    9.45644280489921    2.47473282291592
C         5.35145471968769    8.78341244666442    2.48395009220306
H         6.27073112083597    9.34870142528348    2.51836017659265
C         5.37454539286328    7.39917919856317    2.47172778536214
H         6.32146494033378    6.88058638888949    2.47800526897585
C         4.19116750679345    6.68077720819946    2.45399179394636
H         4.21149455937397    5.60084098350423    2.44167377312466
C         2.97867940876497    7.34976518128553    2.45381593454928
H         2.05227954111670    6.79381340772143    2.44192868347702
C         2.95171279945902    8.73279933252511    2.46622918955823
H         2.00293726296967    9.25266566460518    2.45506500419456
C         5.92939511140341   14.42024363688282    2.26550071288934
C         4.90658317569698   14.90877132463541    3.13569694303839
C         5.54272518358011   15.42510486085319    4.30300469233655
C         6.97770135676805   15.38573270205787    4.09032417857855
C         7.21427278071708   14.76163786503651    2.84977560614936
C         5.76818023620614   13.93056465349837    0.86177514521139
H         5.97961964186090   14.74718268261546    0.16819782329454
H         4.75841722173047   13.57295916334507    0.67584043871655
H         6.46883747341900   13.12375502333682    0.65533603472377
C         3.44331481901567   15.00255192631457    2.84918813788294
H         3.18295222728258   16.05115690425660    2.69548104450082
H         2.84543187298581   14.62692170231426    3.67739298189050
H         3.18107512706593   14.44817545293013    1.95251269152753
C         4.86312308744728   16.13580839041183    5.42870856864963
H         4.86216798077954   17.21121238102904    5.23970960529377
H         5.38419268335071   15.95517023493671    6.36662815603464
H         3.83297739361798   15.80094881130177    5.52643963908930
C         7.97055856686785   16.02644355485851    5.00551467143621
H         7.81445865742119   17.10648088731141    5.00854105805102
H         8.98997751613886   15.81849747850375    4.69068292946488
H         7.84691243710966   15.66245856938115    6.02498248799920
C         8.51892156936459   14.58419843870281    2.13913797798879
H         8.52445198134778   15.18939658039838    1.23112504706255
H         8.66377957708959   13.54195285871791    1.85582159086948
H         9.35345283743571   14.88545060715869    2.76707854859472

