57
CSD_code = CAHNIJ | q = 1 | S = 0 | Stoichiometry = C24H23ClN7ORu(1+) | MND = 6
Ru       12.82945425727416   13.93115973987070    9.21122845919188
Cl       14.24513606453508   13.58418414742893    7.32273452853207
O        11.13124636481858   17.94479243946845   10.08215938688567
N        13.85844257859917   15.56952490059421    9.58427347197493
N        11.61718350293361   14.37161635296267   10.69959321244917
N        11.65843978937483   15.04514939174460    8.01363425186785
N        12.36838717024585   11.00617384848137    8.75772532632629
N        11.78036375360367   12.20603254284477    8.79169859333984
N        14.25935878239014   11.45855791354074   10.09808826158381
N        14.01835715825631   12.74044441639658   10.39208330143031
C        11.46376340552764   18.53436001785923   11.33753903331137
C        11.67256029452980   16.67824799468016    9.80315364707520
C        13.20321386552225   16.72781293456569    9.70416144339263
C        13.85990289890846   17.94641967091059    9.59871305022323
C        15.23827147707775   17.96838641655397    9.46316993366688
C        15.91981647584888   16.76194196704015    9.43391043732009
C        15.19025924270674   15.59012228647763    9.47933888037188
C        11.10436143448839   15.60919844503498   10.74717875120123
C        10.00088202258746   15.90486353861293   11.53564922080649
C         9.47827672791441   14.93988840169333   12.38103816985346
C        10.08259660826821   13.69160518229693   12.40532955028970
C        11.12826793784647   13.44991348315073   11.53963778075516
C        11.23285707484254   16.25185223385240    8.40489250863158
C        10.46654740200620   17.07829689628805    7.60065735129213
C        10.12816276426498   16.64364928885231    6.32984516119579
C        10.57012856128242   15.39421807184640    5.91983905809158
C        11.32544349775868   14.62995129021009    6.78877153912049
C        13.80290570255670   10.90033489260355    8.84956444208190
C        11.45759635170987   10.02641782854138    8.59873679491924
C        10.22243858017731   10.62739524317194    8.52915966732947
C        10.47786191992045   11.99509067876821    8.66012216196226
C        14.97433389016186   10.86642278802012   11.07437460337689
C        15.20209337051316   11.81470585556659   12.04433026428687
C        14.57817264015208   12.97226392112992   11.57146349045103
H        12.11135512046420   17.89285602095830   11.93494185489721
H        10.54548210919346   18.73475444890530   11.89252104921042
H        11.96411733423665   19.48859309681000   11.16398606785983
H        13.29820017954282   18.86373447617051    9.58732296070136
H        15.76120475642149   18.90673057983067    9.37305279275279
H        16.99265290200151   16.72542305334694    9.34107565927999
H        15.68144508577739   14.62808131481438    9.40042115814936
H         9.53866672196471   16.87393950310392   11.46999511939086
H         8.62339497568928   15.15921962635661   12.99925084779444
H         9.73249152341239   12.91179079410460   13.06133952370561
H        11.59593456243337   12.47330661529322   11.50694799518049
H        10.15916925058958   18.03856588191337    7.97879210842135
H         9.53981315253728   17.26727560130541    5.67625662652163
H        10.33892926740241   15.01507811080097    4.93787918322365
H        11.69741095863150   13.65742846405262    6.49155417485724
H        14.09936845089271    9.85224766417783    8.78589493898252
H        14.24469004700312   11.49829893426997    8.02400768728308
H        11.73620987695502    8.99435948469161    8.53789035176538
H         9.27267909442954   10.15283794495218    8.40090735912938
H         9.77627956831130   12.80921712928676    8.66317141452891
H        15.27464961103139    9.84014135397921   11.01775436715081
H        15.74071013537221   11.69380556621546   12.96027678831640
H        14.51706174709884   13.93871931359637   12.03736423630789

