43
CSD_code = CAHPOR | q = 0 | S = 0 | Stoichiometry = C14H23Cl4ReS | MND = 10
Re        7.32617750465609    8.52105769308755   11.16387062164722
Cl        9.31300336278600    9.51492012153707   10.74954270954207
Cl        8.44536813454248    7.09092804085236   12.67990755934676
S         7.33605225137305   10.31436683398135   13.14319034235853
Cl        6.23739779348208   10.10696829237328    9.88764926979478
Cl        5.38807512322428    7.95729552493558   12.17698482513291
C         6.65941630913494    6.78149209485566    9.65780696446541
C         6.94776920758759    5.51878578286836   10.32855484476078
C         5.17926745407204    6.10654836338775    7.77061649934867
C         8.31581858810252    5.24556498487870   10.23393261610568
C         5.93087915832843    4.77171018572456   11.08912422737857
C         5.32594737742553    7.00854629283942    8.99824585894807
C         7.92086039467460    7.28135140027401    9.17766523223962
C         8.93120891339458    6.30999188147951    9.56940032358047
C         6.97355605448775    9.42641750674561   14.70411345722231
C        10.37015877127750    6.54939847713346    9.36246595912383
C         8.96622615713314   10.22788668844373   13.97533142154000
C         8.12562422916470    8.15507833137500    7.97648917380872
C         8.33388527493973    9.79312803410589   15.29704912003170
C         9.00744174859138    4.07854312272987   10.85257917285709
H         4.20297232944732    6.25768853308538    7.31732420084432
H         5.27810620233715    5.05808008484464    8.04172867088353
H         5.94200742914089    6.34077320343163    7.03339569974581
H         5.08959238132662    4.49060931941503   10.45649044607130
H         5.53264503702825    5.44238521004715   11.85965701267008
H         6.34494623414498    3.88851487565260   11.56475926102758
H         5.23170459811810    8.05033548593898    8.69314965230607
H         4.52659509594436    6.79224516132424    9.70892888561080
H         6.09413105191702    9.82181960126733   15.20539954037001
H         6.85580225519117    8.36288705962383   14.50763844752700
H        10.59233469037117    6.70211795320484    8.30644329420713
H        10.98186386721515    5.74307188759990    9.75399523570053
H        10.63002050650202    7.48100124070847    9.87817550741211
H         9.58037520507692    9.45892339439344   13.51185007706649
H         9.48142880842025   11.18476929878798   13.96633152390271
H         8.26420713451509    7.52613163803141    7.09626494468381
H         9.01380729052385    8.77245773023063    8.09629650058401
H         7.27058042520197    8.80479719365372    7.81731012408511
H         8.84458747302233    8.96041777017351   15.77772616134050
H         8.25918239331912   10.62033748895303   16.00207861577120
H         8.38152418039853    3.19066702344123   10.80532021396923
H         9.22173577339696    4.29466282479267   11.89939626780247
H         9.94521582906455    3.86982636779002   10.34521951718919

