134
CSD_code = CAHQAF | q = 0 | S = 0 | Stoichiometry = C51H78NiO2P2 | MND = 4
Ni       -0.00734827512967    3.33711121843869    4.38875563028496
P        -0.63335221101675    5.42171199412351    5.05921568238341
P         1.61180865041759    3.08666212606437    2.75576924820740
O         1.33682488176378    0.11842698305257    5.40312440044173
O         0.92104037253212    2.15285627141701    6.31391306721358
C        -1.55479168954122    2.17685538936817    5.13529430161502
H        -1.52887764835494    2.40946748622633    6.19815874368249
C        -0.50576388559019    1.40573456428407    4.61401086476442
H        -0.68055384313120    0.70560462098576    3.80737223435125
C        -2.90553398328663    2.09302431246553    4.59056946787956
C        -3.15892463860022    1.83261475027578    3.24070951661855
H        -2.33206056190012    1.76982491037414    2.54777707827829
C        -4.44978115081590    1.67596001468561    2.77931685593757
H        -4.62439554632028    1.47436483513439    1.73210350848865
C        -5.52251368581867    1.77258231785704    3.65173879178245
H        -6.53173393364275    1.64131958451573    3.29059667339195
C        -5.29092660791610    2.04922617710967    4.98955373450945
H        -6.12249454686062    2.13504141959400    5.67499750440218
C        -3.99967606689030    2.21521154898943    5.45177819164733
H        -3.82904664688301    2.42484681649197    6.49960292051218
C         0.64983401403149    1.11489027411005    5.43424582296306
C         1.55296412591971    1.81242934098480    7.49507754567989
C         2.68536146523168    2.49130810487956    7.92356110100897
H         3.12206018315567    3.26338298319496    7.31168557154307
C         3.25586536671558    2.17361782708340    9.14354885961958
H         4.13563473560717    2.70759912863448    9.47086768977141
C         2.71112256375579    1.17927477743657    9.93622420262189
H         3.16201775765021    0.93405248772170   10.88588154862010
C         1.58612048184197    0.49755949616217    9.50353964274272
H         1.15511914741876   -0.28157649781571   10.11428498129080
C         1.00496100770747    0.81121198276704    8.28998133815754
H         0.12762836244191    0.28216204212416    7.94700835697485
C        -0.39283397201608    5.73946380483511    6.89024664740868
H        -0.75596608256185    6.74705099046420    7.11717210239389
C         1.09834224075341    5.64112792632395    7.21034237428111
H         1.42141525267589    4.62970105992224    6.96179972654903
H         1.67475508774989    6.33803864191141    6.59905540776380
C         1.37042453105610    5.92946698572171    8.68426813155525
H         2.43767488622216    5.82135545562887    8.89131561453286
H         1.09267604954128    6.96419065355095    8.90494638143296
C         0.57314666180790    4.99221811649905    9.58485806123900
H         0.91701414009365    3.96633186806954    9.43676663228142
H         0.73944754267010    5.25200387869630   10.63269451022708
C        -0.91209174765547    5.07932248729199    9.25206346704605
H        -1.27711491645333    6.08777532992801    9.46499868259434
H        -1.47363443538215    4.38246015698136    9.87860032434009
C        -1.14439797107980    4.75201166249070    7.77930277062285
H        -2.21478178228642    4.77804349349833    7.56739413109556
H        -0.77139208727086    3.74636817854465    7.58454271348625
C        -2.48200807066028    5.68439941488433    4.88993331169132
H        -2.89693692912885    4.90603701030210    5.54423515450754
C        -3.06331530641514    7.02551647089237    5.32751134979597
H        -2.73040756706125    7.28686389033414    6.33306625603120
H        -2.74274466082741    7.81174147478987    4.64332327076956
C        -4.58985474497820    6.95787436704636    5.30071947620495
H        -4.93327749330832    6.19151087609415    5.99967859104743
H        -5.00742612712390    7.91521208467888    5.62219680730341
C        -5.08351418102978    6.61777090339932    3.89803881369678
H        -4.78701227005119    7.41141510938108    3.20742675606995
H        -6.17397774139487    6.55985650202192    3.89038592746412
C        -4.48770195281091    5.29098337459978    3.43762439452216
H        -4.82166606987582    5.06145640930959    2.42349447206411
H        -4.83994852941814    4.49207268859046    4.09114629167531
C        -2.96365453216909    5.34814281845571    3.47788007198984
H        -2.62478113948834    6.09852718880668    2.76493187108771
H        -2.54593621912442    4.38335501440975    3.17888914342161
C         0.20213542205453    6.97467439821347    4.37837291708859
H         1.25668390591002    6.67603765294580    4.35244668288722
C         0.14032167224698    8.29776519228830    5.14484977564927
H        -0.86891368259608    8.70732190356100    5.12913200498157
H         0.43886958618110    8.17571329989002    6.18496345214266
C         1.09418898167627    9.30157191789497    4.49208357847349
H         1.05466411974289   10.24831942833869    5.03585260428761
H         2.11715996053350    8.92226126429763    4.55926955508428
C         0.74064746326696    9.53335269621835    3.02662458160728
H         1.45132398450676   10.23103723413288    2.57831254345332
H        -0.25338869674225    9.98231568221016    2.96027274844951
C         0.74822122175195    8.21166328095133    2.26566902166954
H         1.76036445163403    7.79937403180152    2.26514942283420
H         0.45375928966536    8.37898252242078    1.22651102876128
C        -0.21073579772506    7.22834396930424    2.93095120370329
H        -0.22588981695324    6.28092075379369    2.39356658804552
H        -1.21293013921715    7.65793609083149    2.90063562146008
C         1.30546123382419    4.11396547878636    1.21916692027683
H         1.45767947025913    5.14059137764999    1.57594820733266
C        -0.16275103892542    4.00541557715069    0.80311479410619
H        -0.36682381522424    3.01806476114206    0.39088679007339
H        -0.79434064613137    4.13368663867995    1.69012342580569
C        -0.49699673160890    5.04847825327716   -0.25938603262876
H        -1.54111521039535    4.94686993632240   -0.56345045956801
H        -0.36461840167324    6.05302096170296    0.14771478261106
C         0.41794485615068    4.87635125177436   -1.46915646350269
H         0.23447507139829    3.90127691942791   -1.92692315246463
H         0.19657795377646    5.64138735859213   -2.21653450743731
C         1.88250228321190    4.96878997932130   -1.04942971130360
H         2.08007509145420    5.96342752629396   -0.64185874852875
H         2.52735522486729    4.83075770567006   -1.92048058787537
C         2.20698738194473    3.91161756299743    0.00631903279349
H         3.25855825379407    3.98757357878802    0.28829214893471
H         2.03830447991277    2.92654049778101   -0.42870400317266
C         1.92490166174286    1.32051023665828    2.18062288813878
H         1.90760130422857    0.76252899964563    3.12634515328419
C         0.77341936067083    0.78365554631244    1.32860096214813
H         0.83731442047213    1.18988516189489    0.31707046227049
H        -0.18561027889367    1.08588488739391    1.75242706310715
C         0.85726858590036   -0.73768302719589    1.24447921110340
H         0.79449401399249   -1.16167875552423    2.24908140823857
H         0.02081146924616   -1.12846526509508    0.65949324590355
C         2.17933954279401   -1.14590172962168    0.60241053656866
H         2.20977270949651   -0.78152425757738   -0.42819214911202
H         2.26184311158772   -2.23434464978999    0.57273858441000
C         3.35070564555715   -0.55809350426258    1.38293232524031
H         4.29205733975073   -0.82617123457212    0.89676274170399
H         3.36019025803655   -0.98284812385720    2.38931017998918
C         3.24091751792550    0.96486357075759    1.48453313257198
H         3.27734831122691    1.39268340410932    0.48241415842843
H         4.10314433461684    1.33280007926853    2.03856884016834
C         3.34948617413276    3.59908775402690    3.21842639538647
H         4.02502707115723    3.43886397780473    2.37228381409500
C         3.78218817138099    2.75818588459417    4.41908703934335
H         3.04519897488390    2.91736759840365    5.20745178474716
H         3.77802021028292    1.69414871534996    4.18118022834934
C         5.16644272275794    3.15699781720222    4.92066140098753
H         5.43176832717594    2.54635936296866    5.78679341462140
H         5.90522355946890    2.96277892636833    4.13829646989311
C         5.20514676792953    4.63594543085860    5.29034692533978
H         6.21062790805013    4.91737967995481    5.61120148564141
H         4.52438267245704    4.82552104014614    6.12396403817148
C         4.77855187511833    5.48148326547122    4.09622589289497
H         5.49561568469954    5.34826515687277    3.28203057392683
H         4.77795700307505    6.54003335444151    4.36855740202023
C         3.38840655828464    5.07058586072967    3.61974994257625
H         2.66734127120496    5.21247892391538    4.43006124599357
H         3.09693029948220    5.70478365083094    2.78046272019557

