61
CSD_code = CAHQUY | q = 0 | S = 0 | Stoichiometry = C24H34NPPt | MND = 4
Pt       11.20782719032159   10.19681715281345    8.08249193440382
P        11.78960965784999   11.42377961316802    9.91769149188291
N         9.16143220226023   10.19493104323639    9.15230317435859
C        12.98000509473664   10.23424880487478    7.14525023508993
C        13.84834305251273    9.14527708850212    7.19785841163885
C        15.11213569093743    9.21448864140766    6.63524456566957
C        15.53096166209542   10.37130523988788    6.00114666801622
C        14.67296357301579   11.45447074015720    5.92459891963364
C        13.41145881148059   11.38608554547782    6.49190365884890
C        10.57036139319460    9.08549943699957    6.58752547743656
C        10.04839854513125    8.42728519555634    5.71192652790298
C         9.44154663745968    7.64898859185053    4.69668153941317
C         8.17278889469118    7.97653929374229    4.21331314748589
C         7.58197224005098    7.21048579719957    3.22788416574178
C         8.24204416083791    6.10728848284119    2.71089936783942
C         9.50169482600251    5.77515676866476    3.18483764741818
C        10.10027576622680    6.53643468659216    4.16881117279382
C        12.93748061628970   10.50457905851419   11.05595664599135
C        14.37084319829714   10.61983011474878   10.54461633458924
C        12.48674331606654    9.04291329419186   11.03845369526026
C        12.44198131813681   13.16695474368338    9.88952232101123
C        11.56724466732451   14.00053182829033    8.95413978715809
C        12.58687550430510   13.82343971960019   11.25773116733532
C         8.39778469754296    8.96649680510557    8.95245543193798
C         8.50284110653052   11.29258583133546    8.45029745401381
C         9.25528916771334   10.47159242063996   10.58759171677205
C        10.24181709951261   11.58756973376174   10.93591601326114
H        13.53270182940357    8.22319294944646    7.67356566853589
H        15.77253248047780    8.35975292138047    6.68885723020724
H        16.51689542121425   10.42561434742649    5.56174830042344
H        14.98830403403029   12.35782923740489    5.42005584262602
H        12.75368480999284   12.24518086043564    6.41105023353546
H         7.65881534516292    8.83968755717390    4.61499036416856
H         6.59990971144150    7.47343103629991    2.85885592088558
H         7.77686283013018    5.50934247424978    1.94025660776538
H        10.01907679933601    4.91575467256652    2.78111565843535
H        11.08313662958673    6.28367529872431    4.54015336108082
H        12.87160336874472   10.90160086615835   12.07682036458157
H        15.02606235201436    9.96235959771593   11.11418223148654
H        14.74965455174487   11.63497853136718   10.64046705338949
H        14.41835779296749   10.32768437292965    9.49594811392326
H        13.26692779066785    8.39339657789608   11.43156556321723
H        12.27054854814001    8.73602841551489   10.00573645119932
H        11.59380476598887    8.89572616037950   11.64332216434392
H        13.43086591929355   13.07621837359358    9.42268647966265
H        12.06228097894841   14.93609503166725    8.70031638153565
H        10.61205152856873   14.24597769272158    9.41718410229561
H        11.37782995695400   13.45202842377215    8.03001650469814
H        13.00836975695408   14.82128694171868   11.14338303895150
H        13.24836370530758   13.25137497893362   11.90404660515277
H        11.62168051764016   13.92257847277544   11.75074713307930
H         7.38538566375307    9.05362569941235    9.37115508847182
H         8.90775970308649    8.13146373280914    9.43209861365694
H         8.32830223403594    8.75169507090462    7.88724505642199
H         7.49154549533168   11.47057460890221    8.84503079554353
H         8.42831824635094   11.04645986346004    7.39033254050233
H         9.08418888618919   12.20950876434592    8.55035609544221
H         9.57674715441402    9.54740647560298   11.07465854506042
H         8.25738188804615   10.72570576052700   10.98720829502995
H        10.47057717894905   11.55257414813678   12.00412669245246
H         9.79595203460941   12.56141441079490   10.72056822933990

