111
CSD_code = CAHQEJ | q = 0 | S = 0 | Stoichiometry = C48H57NiO4P | MND = 5
Ni        5.44397446460752    4.08022472759904   11.16970442211374
P         5.14107940649098    1.82356572430127   11.37681717394444
O         7.48012661543820    4.34633016751055    9.85205650592802
O         7.40203124382940    6.60496099402929   10.10789726590431
O         7.33321537414787    3.39691337444123   14.43157375537199
O         7.93005326285114    4.71642265454017   12.69421247345698
C         4.77341782697487    4.37715228134206    9.10859583145756
H         5.40417965539527    3.59227376383027    8.69433820279655
C         5.41039630896078    5.48194241207358    9.64782961786180
H         4.94679346859227    6.45663021513407    9.71991168073073
C         5.36203355337908    5.70276123222956   12.52006528706414
H         6.18047477349882    6.38674530791441   12.30557979413362
C         5.65307438962280    4.52199273820736   13.19174668469298
H         4.90567314267450    4.04075187450973   13.81298914976256
C         6.84397940263728    5.39155502249602    9.88540122569266
C         3.41504755208477    4.41258770748284    8.58370365821295
C         3.07671022788753    3.57656135620035    7.51638010610795
H         3.81486194624792    2.88821627319629    7.12794421793984
C         1.82231049686903    3.63565638337120    6.94022499321733
H         1.58185821743864    2.99064959038188    6.10700738912573
C         0.87165801481021    4.51609257571446    7.43038626207136
H        -0.11078223661388    4.55708171631663    6.98418627206663
C         1.18892728905430    5.34105322336869    8.49799455439293
H         0.45119136159218    6.02653005875703    8.88906491371686
C         2.44638164964633    5.29695873961535    9.06502172054577
H         2.67768382388550    5.93830722264673    9.90118076641751
C         8.76887685132533    6.70846472027500   10.30782690847494
C         9.67620130335539    6.18090141916209    9.40129010897802
H         9.31988527531017    5.64034078933847    8.53777987159855
C        11.03149502676085    6.35178415033856    9.62106858055129
H        11.73949110043361    5.94105807968411    8.91678741096245
C        11.47965779638627    7.04308977152945   10.73288267975475
H        12.53824593058216    7.16881087838772   10.90204415852727
C        10.56796306127363    7.57518048667450   11.62848516895025
H        10.91336892127077    8.11540293290088   12.49696109846078
C         9.21167131453232    7.41163993828375   11.41958759677895
H         8.49053622354303    7.82103966650106   12.11025517870536
C         7.02990584724739    4.14049842227803   13.52518911160621
C         4.02654242380024    6.29269836304223   12.46426783794541
C         2.86739404879792    5.51809064024142   12.57881089094746
H         2.95301724168883    4.44488355393897   12.67943393998262
C         1.61837310946623    6.10300625055913   12.51847455979643
H         0.73429260385354    5.48750125118842   12.59950215209398
C         1.49587471172080    7.47269029773187   12.34206491273994
H         0.51836457027060    7.92921066805004   12.29523245560361
C         2.63459907545408    8.25194690294849   12.21282754238687
H         2.54459470620123    9.31832059923923   12.06396612730005
C         3.88612093373322    7.66971019255777   12.26846805163793
H         4.77013962595814    8.28290220517158   12.15993001107119
C         9.28457685023971    4.53758517520181   12.93024007948624
C         9.84501657371061    4.86280165905249   14.15632341070068
H         9.21648218652066    5.21170876996746   14.96125464614865
C        11.21067750703839    4.73005621411705   14.33226198466902
H        11.65072585726714    4.98286332366959   15.28543736546892
C        12.01019400912566    4.28001401415901   13.29601380109526
H        13.07586478969878    4.18071052190238   13.44016618080451
C        11.44119932534752    3.95718972894707   12.07588652685298
H        12.05999275985069    3.60317425642049   11.26492598570771
C        10.07796133955076    4.08123695437952   11.88819289933809
H         9.61740120399738    3.84600657080314   10.94312318020258
C         3.68342225459151    1.11824929151459   10.43494956436597
H         3.93362472494994    1.33788046070158    9.38847955061287
C         2.39726014617965    1.88794814724143   10.74010391296688
H         2.06665023189090    1.68817061005183   11.75850423779713
H         2.58571659445462    2.96105926535365   10.64747005402854
C         1.28942185408105    1.46610500842899    9.77913681120163
H         0.37201744463885    2.01098219976277   10.01170405099787
H         1.57581335699970    1.72277417684858    8.75809947043788
C         1.04521758594584   -0.03714682895296    9.87413453556348
H         0.26867553565701   -0.33416031049705    9.16617995314416
H         0.69372988694396   -0.28705771881882   10.87823342009844
C         2.33305091320266   -0.80241033183424    9.58516486608923
H         2.65326751581826   -0.59720998827400    8.56090015495601
H         2.15572902439182   -1.87701548519897    9.67093702154694
C         3.43441961177592   -0.38179630746691   10.55756769809051
H         3.11210026186929   -0.62327081498943   11.57069186852096
H         4.34455010635543   -0.94420743833652   10.34373509699670
C         5.07916024829270    1.14842438944179   13.13391612541521
H         5.83751298118815    1.75675458444738   13.64362362902046
C         3.74309429560697    1.43452808851469   13.82166481596640
H         3.40570978227825    2.44847399764937   13.59847153883213
H         2.98258360085543    0.73966630014053   13.45996886087900
C         3.88748003156890    1.25144313327707   15.33018354778634
H         4.64870691987957    1.93707070585415   15.70821338912051
H         2.94304041236796    1.48435438047522   15.82807909571026
C         4.30164678730017   -0.18380349610656   15.63692312125636
H         4.43880160709055   -0.31284228603828   16.71232292479676
H         3.50975734566477   -0.86676201235406   15.31748676810330
C         5.59485070895518   -0.52519196251380   14.90419970030788
H         5.87126797442334   -1.56340102779248   15.10296044498874
H         6.39762151385777    0.11431661090184   15.27728012916132
C         5.45142070768809   -0.31324809379747   13.39543091848180
H         4.68439432114530   -0.98563872279005   13.00999673405910
H         6.39860892434547   -0.57385370781750   12.92633956963770
C         6.57720708253549    0.85137192375431   10.68841418790932
H         6.41273677120222   -0.21531425110863   10.87577170893351
C         7.83898702080782    1.33237918318958   11.40650797168746
H         7.94023243563354    2.39958051816444   11.20163142117050
H         7.75296518543555    1.20634435556884   12.48688826831598
C         9.07934638094743    0.59857876561072   10.90876431714306
H         9.96112167130979    0.98093277178463   11.42765512365199
H         8.99114148963333   -0.46717597949200   11.13956845049124
C         9.23654111589037    0.77924666227396    9.40334711455889
H        10.11138771371579    0.23114712991403    9.04604331699703
H         9.38541502750861    1.83799540999662    9.18285586493741
C         7.98145527119416    0.29388878345537    8.68654347802297
H         7.84433523558061   -0.77525752593830    8.87125476104633
H         8.08843985808760    0.43460645505522    7.60832184563974
C         6.76074947742181    1.06273150578626    9.18663635014183
H         6.92219942797607    2.12608161077642    9.00478495573172
H         5.87595828566801    0.73474115825324    8.63648094268089

