119
CSD_code = CAHSIN | q = 0 | S = 0 | Stoichiometry = C63H52OP2Ru | MND = 8
Ru        7.54205289810491   10.42925192768938    5.93693211630408
P         8.79359258566438   10.22130700107704    4.06531779146826
P         5.88423449535114    8.97389232674969    5.41684535761182
O         2.70270007610511   17.01495227053332    0.96999690707293
C         7.52957090094161   11.57821274074202    7.87620495213289
C         8.82944584148488   11.62890004953699    7.30922386437689
C         9.33969488628208   10.29902422585962    7.28465865193693
C         8.35498001972258    9.43310379330917    7.79496742996195
C         7.22451982211087   10.22700756105182    8.15221867288312
C         6.58934201415244   11.90495143760804    4.97413671680397
C         6.05941211869561   12.91067881235311    4.54740637887740
C         5.40696029834232   14.02679466778900    3.97520635502928
C         5.04474024813193   14.01207926950169    2.62598662900491
C         4.39071504925117   15.08957021038059    2.06754489498775
C         4.05965198875225   16.20149540721021    2.83450488064278
C         4.45109262582766   16.23213723430907    4.16900477115542
C         5.11140891998007   15.16101188291788    4.73395008600468
C         3.37325369744315   17.39451669948109    2.17915328424219
C         1.54413554577906   16.23907158964296    1.13267660302292
C         2.37601738295692   18.10481896813680    3.08309570235720
C         2.06272489316119   19.43621923502394    2.83267721873061
C         1.10585411664960   20.08944797306844    3.58797597700033
C         0.43623289340667   19.41705009977422    4.59626116263855
C         0.71859924822973   18.08304910362048    4.83107830224764
C         1.67542490416055   17.42822947276157    4.07474456978750
C         4.51934059050556   18.31326272439176    1.77882632283624
C         5.01578600296680   18.29649451263764    0.48314542394416
C         6.09107884939461   19.09444345606902    0.13395665299755
C         6.68887291965685   19.91169928393668    1.07691051207180
C         6.20318822440526   19.92649910035050    2.37363381254701
C         5.12728737015142   19.13205888394400    2.72362394286556
C         8.04968185382967   10.41438401702428    2.40605370186904
C         7.91886465699289   11.64846992025095    1.78026868730805
C         7.29469315411345   11.73915486895929    0.54819088386607
C         6.79606221273862   10.60512033644116   -0.07003921911896
C         6.91689479147801    9.37289678486693    0.55124920984548
C         7.53103128086121    9.28057864001450    1.78466129489329
C        10.11074647178754   11.49479009670440    4.05830259451718
C        11.46456739214048   11.21098818157371    3.91793098268149
C        12.39896923926577   12.23170108721678    3.97304146165209
C        11.99615954987833   13.54143028382683    4.16653236843816
C        10.64966626925509   13.82964054890875    4.32461415602709
C         9.71435191939833   12.81308085931203    4.28345028255343
C         9.77510995661798    8.70194412619642    3.78402344169727
C         9.89153793890086    7.76950369821300    4.80512392431668
C        10.65358480495598    6.62699406811875    4.63299558228496
C        11.30423409242353    6.40728389495599    3.43165914968339
C        11.19259011109884    7.33332077364967    2.40478072135710
C        10.43548090564323    8.47624039974102    2.57697987380368
C         5.05869122525136    8.75989980817813    3.79701812907385
C         4.79546026560502    9.92548788761790    3.08358720134590
C         4.06326131145170    9.87638168041531    1.91271535898370
C         3.59178445521675    8.66264660546540    1.44044252237683
C         3.84660040542790    7.50116740524555    2.15003444032016
C         4.56670626575319    7.54569365588612    3.33081253751814
C         4.32773794710390    9.23564615509128    6.34698795159919
C         4.03626723423514   10.51777936780594    6.79611114526719
C         2.84533451865520   10.77212884847639    7.45276720477575
C         1.93775846823272    9.74748191222820    7.66236921270930
C         2.21570483936325    8.47104991259614    7.19854043878701
C         3.40053901559222    8.21469048707766    6.53442340147584
C         6.34656322146609    7.27296183714772    5.88137980730517
C         6.16351412396877    6.80743441942187    7.18087906333001
C         6.64878313336146    5.56707188847169    7.55302251125392
C         7.33113593431432    4.78212361255079    6.63725778402804
C         7.53700995776253    5.24712994939742    5.34806387859070
C         7.05789295018837    6.48882973392577    4.97615878691087
H         6.92471052653664   12.43371409968781    8.14833073007334
H         9.41031254820069   12.52536470648250    7.13335919409752
H        10.35794976558639   10.02998568692258    7.02817364400660
H         8.48496750076368    8.38730216266314    8.04286557557431
H         6.36011894365350    9.87679403827482    8.70465801290151
H         5.28847241648159   13.14673759371387    2.02515232799376
H         4.12875049311908   15.07560196683132    1.01948256755075
H         4.23325886143993   17.09855394838991    4.77699510116927
H         5.40375634878478   15.19349217591301    5.77439933276814
H         1.72146949764655   15.36600990416700    1.77050242716908
H         1.27038028989172   15.90296026382697    0.13289271259291
H         0.71677028782856   16.82313370289933    1.55303601301670
H         2.57326553210906   19.96019039992172    2.03800041304455
H         0.87957850449026   21.12624694069417    3.38545298145802
H        -0.30898136482537   19.92751500546249    5.18878400555677
H         0.18820876024161   17.54438374573448    5.60319898664846
H         1.87563117739357   16.38294430810402    4.26081229242254
H         4.54423197721461   17.66269402879913   -0.25011488415225
H         6.46365934678161   19.07664417762404   -0.88026665645175
H         7.52842043302121   20.53473718830635    0.80450421321796
H         6.66317840710610   20.56188505627723    3.11683131603746
H         4.75231663621882   19.15827145912620    3.73614380831719
H         8.30890839238715   12.53838954387676    2.24958998256704
H         7.20177771043721   12.70247030524501    0.06734470177580
H         6.31417461243505   10.68005198957416   -1.03385913023919
H         6.52662063509863    8.48442588500700    0.07662258962180
H         7.62115715835112    8.31921761068040    2.27229136424855
H        11.79900930121625   10.19387520213258    3.77279524369524
H        13.44896023680009   11.99906102747523    3.86652097014398
H        12.72953481521267   14.33357729307662    4.20607565301697
H        10.32882001388063   14.84815958960099    4.49024846731949
H         8.66404914576185   13.02565769332387    4.44769200194343
H         9.36757666295731    7.94029741634108    5.73557478528428
H        10.73564040829471    5.90833468785072    5.43580871697869
H        11.89869077912211    5.51618746218965    3.29168464918831
H        11.70147366646351    7.16255506977774    1.46698161438497
H        10.35041045762489    9.20033096363042    1.77795416792617
H         5.18231026937650   10.86267253560500    3.46254217537766
H         3.85957824145327   10.78609898248808    1.36743501034142
H         3.02210883622941    8.62036588001299    0.52342753779293
H         3.47439769374451    6.55346254786178    1.78715519504502
H         4.74534811621080    6.63228062477626    3.88037425031793
H         4.75142554984977   11.31194416063140    6.61361017847609
H         2.62433089557400   11.77081763803954    7.80064213528174
H         1.01008064621063    9.94228912300096    8.18059123463546
H         1.50269701587165    7.67366894776569    7.35214368636291
H         3.61026105944095    7.22044542272033    6.16470138878927
H         5.63371464177157    7.41980670969960    7.89872114825116
H         6.49704162411298    5.21130134862508    8.56236205812350
H         7.70709448625240    3.81284790679701    6.93063946172045
H         8.07884393883794    4.64415604768449    4.63356971985317
H         7.23285279841650    6.86532814952501    3.97710851095154

