49
CSD_code = CAHWOX | q = 0 | S = 0 | Stoichiometry = C14H22N6O6Pd | MND = 4
Pd        6.18490079453656    5.13593279526863   14.77921575807174
O         2.71348271132589    4.94195303439617   11.62154425209573
O         6.48977652560532    2.48754688872456   12.10799549201386
O         3.96860612735152    3.83555487873497   15.83630844679464
O         3.63289837228517    9.71591509541173   11.35629254909892
O         5.72147937303228    6.07323628007630   13.05355050628165
O         2.98918360263111    8.79402266261654   15.75619806256358
N         7.08933012587529    6.90705175023147   15.72546320436131
H         8.07459685678924    7.00779776510096   15.47544319576159
H         6.60084636993700    7.76499539078588   15.46290081011739
N         6.69688454095250    4.27764569854594   16.62442216978110
H         5.74960999503505    4.11937590864465   16.99188571834060
H         7.16825676033764    3.37372665183181   16.60129863428033
N         3.29774529288091    4.31834297039892   13.71232255392509
N         4.61838105851132    3.73323301149512   11.85317108067336
N         3.31682650540947    9.26508024829823   13.54820912878303
N         4.64451787044522    7.87441904274403   12.21454090197499
C         6.94182396882592    6.64720531010801   17.16305425773689
H         5.87800042881535    6.72199349078682   17.41770708832303
H         7.49784945738816    7.37182074270346   17.77286787514085
C         7.44115292246306    5.23008803404830   17.45655727147638
H         8.50341827900364    5.16110528698945   17.19603416943927
H         7.33121747833755    5.01063509456113   18.52588907229488
C         2.04729449082292    4.88334340267814   14.19506429394479
H         1.21272661520485    4.38502067880197   13.70378457417300
H         2.00289612180256    5.94906818508637   13.97208854001839
H         2.00975752464413    4.72273620194038   15.26980818821632
C         3.50617876040331    4.38012930865014   12.34299520068265
C         4.79413446444008    3.66789062445220   10.41291910781749
H         3.89409011273364    4.05004828324031    9.93870860331544
H         4.96983046351093    2.63185687585422   10.12601800941786
H         5.65937357088745    4.26302209519885   10.12132808738900
C         5.60256866700780    3.13357711257233   12.62966269733950
C         5.46273668641894    3.31783297879715   14.07399479341257
H         5.94387233160500    2.52157070182616   14.65140930812254
C         4.21482185116108    3.82757100596938   14.62133829937248
C         2.48392886011072   10.44899895126739   13.65193182371261
H         2.13087811220796   10.50358285659789   14.67959206984542
H         1.64429017508268   10.37359771764367   12.96166863392360
H         3.06549265605477   11.33557191928936   13.39915322797183
C         3.83646386179689    8.99672336270799   12.31057899160847
C         5.17278160736675    7.52934145896881   10.90864003495123
H         6.20852301896057    7.20996595710203   11.01254814411065
H         5.09882188424002    8.41154626373387   10.27697981235003
H         4.58295270662928    6.71986356945875   10.47688587435128
C         4.90741607067871    7.04257994374077   13.27891459142438
C         4.31603755867510    7.32654770315326   14.49543749854859
H         4.39368720798750    6.63561937281010   15.33997652393179
C         3.49465920176414    8.47021543595254   14.69180087070174

