61
CSD_code = CAHXUH | q = 1 | S = 0 | Stoichiometry = C18H36AuN2S4(1+) | MND = 4
Au       -0.00009680793543    7.49109597314710    0.00004304567699
N        -0.15114839977363    9.01796040914362    3.88863562834683
C        -0.10506641832340    8.54143197859217    2.67404739640063
C        -0.52002183550150    8.17931774954003    5.01125243812656
H        -1.05993623513463    7.30799894809691    4.63058044143822
H        -1.19058017014994    8.75210763736532    5.65474201235414
C         0.69270722238253    7.70078289827629    5.82980256339831
H         1.21520576045990    8.57481115653199    6.23232719307174
C         1.66567943015464    6.90137328030878    4.97008450496131
H         1.17410224272866    6.02679098613359    4.55023324112379
H         2.50184923285458    6.56394422364620    5.57605833728963
H         2.06471648712552    7.50329349163302    4.15564772525693
C         0.18543764029196    6.85856267937308    6.99701507715208
H         1.01939315861706    6.53820576472140    7.61461531896277
H        -0.32945660827359    5.97302637245379    6.63284449982451
H        -0.50071987738329    7.42695827310971    7.61977519205744
C         0.16546949886035   10.40493408938932    4.16368916265065
H         0.75170558760750   10.79877742130149    3.32890249188259
H         0.77748903163801   10.43901565307440    5.06706764994538
C        -1.08487398428769   11.28176618675459    4.35723779741027
H        -1.65437927185220   10.90247004712445    5.21208021992108
C        -1.97980676860493   11.25778164555837    3.12297886382969
H        -1.43931381964594   11.62234617944427    2.25247197642816
H        -2.84293958114239   11.89839279286514    3.28076351088742
H        -2.34308068887729   10.25318929641407    2.91402868064828
C        -0.63209018261156   12.70543638287644    4.66895288513242
H        -0.00416768903120   12.73015079362166    5.55596160810351
H        -1.49545005992341   13.34017336086940    4.84567657244424
H        -0.07011700825480   13.11815859966202    3.83483323502653
S        -0.55175033613036    6.93972907046827    2.24303971761000
S         0.41099922534382    9.43499579039234    1.30073520302933
N         0.15104054819243    5.96420581515606   -3.88867734901167
C         0.10489954306177    6.44081312566911   -2.67411607127044
C         0.51991591462686    6.80277535260777   -5.01134680581730
H         1.05982964409236    7.67412561997150   -4.63074559911238
H         1.19046911416082    6.22993568074324   -5.65480140881164
C        -0.69284303079145    7.28122742486441   -5.82989093797351
H        -1.21557611015804    6.40714947598085   -6.23200281763461
C        -1.66553143227074    8.08112841276532   -4.97030485434792
H        -1.17372737466545    8.95578803892212   -4.55088312598293
H        -2.50175679853702    8.41846155205806   -5.57625647730846
H        -2.06451984943336    7.47958813132837   -4.15556063660947
C        -0.18559377150443    8.12290778586096   -6.99749972633398
H        -1.01960354336410    8.44328329387956   -7.61501311276684
H         0.32962764840097    9.00842401553966   -6.63374336960165
H         0.50026520971596    7.55410920374918   -7.62022628353670
C        -0.16542754950919    4.57717833693123   -4.16363398153767
H        -0.75176110848897    4.18337068811027   -3.32890055188369
H        -0.77730042561827    4.54296343426246   -5.06710276690362
C         1.08501307517441    3.70041968679825   -4.35691916526846
H         1.65470196917915    4.07979829324883   -5.21159980085514
C         1.97964982120087    3.72439421649899   -3.12244695278710
H         1.43898403948312    3.35971589128780   -2.25209597451840
H         2.84287728850707    3.08387231229830   -3.28007422432152
H         2.34278548765634    4.72900342665311   -2.91333450937927
C         0.63240865448257    2.27673239954343   -4.66883081543877
H         0.00474129587634    2.25201999114394   -5.55602029129275
H         1.49585691895965    1.64204940384734   -4.84533339944463
H         0.07022043207475    1.86394282517349   -3.83489187187219
S         0.55166779590822    8.04248289196696   -2.24311074218496
S        -0.41107218164964    5.54725414126620   -1.30076056659844

