31
CSD_code = CAHZOD | q = 0 | S = 0 | Stoichiometry = C15H8MnNO6 | MND = 6
C         4.80678184665934    6.44992121050322    4.28551514739243
C         3.97504417243929    4.06884066240589    4.61129977251745
C         3.09617211828261    6.25129242503661    6.17648951347323
C         2.93830956923976    5.77297439397779    2.71021948251331
C         2.14150933768766    7.36256525613792    4.75045458079360
C         2.71141976953228    8.70293952225556    4.78688520991472
C         0.51561853686043    9.60605193028603    5.01219732224561
C        -0.06093053379276    8.38280074771874    5.00472966583248
H        -1.12963593574033    8.29437995977234    5.09073722276830
C         0.77282007810965    7.23059306903490    4.87567669626579
C         0.28135919122217    5.85804646581533    4.85488287694285
C        -1.05980414004129    5.50211291464953    4.99923693936326
H        -1.80545147137188    6.26715465173572    5.14155779860255
C        -1.42300928594373    4.17123138836525    4.95912066153090
H        -2.45590855812484    3.87893740850529    5.06944584967510
C        -0.42915955268198    3.22146630653614    4.77251831620792
H        -0.66122313216307    2.16976173118105    4.73154707205408
C         0.88211384104942    3.64198784189513    4.64113136580470
H         1.66896135398112    2.91271991737698    4.49777776979934
C        -0.21918796801268   10.89855314276978    5.13390674634190
H         0.15186210299772   11.45234263053849    5.99472374885160
H        -1.28525621399260   10.72737015822200    5.24278068532358
H        -0.03703242824036   11.50869278137185    4.25048738961271
Mn        3.19028956805548    5.67544336850344    4.48157945817318
N         1.24574791687231    4.92386792077964    4.68174703944514
O         5.86544128000112    6.84905268425619    4.14289175650568
O         4.50342764687233    3.05397862264068    4.70740785023832
O         3.02238348067767    6.69116553419407    7.23607930112538
O         2.74358203003659    5.94151967872822    1.59531553499105
O         3.89408108246857    8.94855937806110    4.71973016935292
O         1.84517429706049    9.76427629674587    4.90772705634140

