76
CSD_code = CAJCEV | q = 0 | S = 0 | Stoichiometry = C30H33ClF5N2OsP3S | MND = 6
Os        3.16011713831278    3.21151645491207    3.07971086758268
P         2.99020844169569    3.42958242604762    5.43193342654163
P         1.46651209074423    1.60814107529572    2.74721187748930
P         3.88977109269749    3.28569516883665    0.82812582031966
S         5.44528080243232    4.24522863088282    3.55164595575622
Cl        4.48935285171921    1.29294687229292    3.38227048204861
N         2.02276456795944    4.56101556437404    2.85055419134810
N         1.18468390361177    5.29758523034533    2.71091937463913
C         3.96290263549715    2.25504579092699    6.42510730711734
H         4.99877656526557    2.26253850835131    6.08635506424061
H         3.55595674914550    1.25785748129290    6.25633006594446
H         3.89703312477378    2.51384574559077    7.48224922308926
C         1.35611091716270    3.32437882211463    6.26975574417732
H         1.45131752386855    3.69739764697713    7.28934387914653
H         1.02281901514339    2.28930192843742    6.28919088173109
H         0.62257646002533    3.92330744481327    5.73246477120961
C         3.51290090706923    5.06534748138082    6.04753445320390
C         4.67781479214686    5.25314043437544    6.78228599090574
H         5.32981455046179    4.42028431436256    6.99744230999351
C         5.02324230693406    6.51868589018354    7.22419800965645
H         5.92926879340151    6.65467779064631    7.79639653431180
C         4.21731086912803    7.60597006652416    6.93177900814994
H         4.49090959843907    8.59138765562128    7.27827483228133
C         3.06253497141024    7.42677734900000    6.18710050275518
H         2.43635676552113    8.27261380409320    5.94478193416685
C         2.71287898578366    6.16491031838742    5.74446464475612
H         1.81880180146508    6.03255755699007    5.15112706240605
C        -0.10183581075797    2.21442273337896    2.01547737489421
H        -0.50936794157617    3.02893609531563    2.61205122558656
H        -0.82342789036222    1.40227733512930    1.93903725380122
H         0.12226305945497    2.59864526796407    1.02038182053223
C         1.87083830204264    0.25446131101162    1.58374409194273
H         1.07116607236497   -0.48612300196386    1.60395029261766
H         2.81078568408307   -0.20369948699352    1.88372435266905
H         1.97070673041447    0.66656475624056    0.58037263493871
C         0.91008641747469    0.63379177169975    4.18397289741813
C         1.79801942881051   -0.28496119196295    4.73955841119328
H         2.78889149664543   -0.38295862280560    4.32007744212230
C         1.42093077412955   -1.04747216936662    5.82987446610547
H         2.11577087883365   -1.75721459991905    6.25419867304001
C         0.15590630296128   -0.90319355257942    6.37662031823857
H        -0.13994862039185   -1.50106998998107    7.22573619598387
C        -0.72792128509174    0.01435027330894    5.83340967883829
H        -1.71325288179655    0.13400879601122    6.25985664846586
C        -0.35415120990607    0.78500504538487    4.74566701915867
H        -1.04853127131907    1.50722805941866    4.34408026031692
C         5.30040782591190    2.20607410446001    0.42482048091770
H         5.63087938169607    2.38299693854090   -0.59897292341715
H         5.03572629539306    1.16093839307515    0.57590650035390
H         6.10106453395715    2.45408593270365    1.12366101981189
C         4.54642776175399    4.90200966312955    0.26710971793207
H         3.79398635873641    5.67717947286583    0.39476828671351
H         4.82343974931918    4.82907191017054   -0.78506186411566
H         5.42309737331499    5.15162639106423    0.86323638262897
C         2.68956156868610    2.99985765029389   -0.51742690034525
C         1.61055208998855    3.87759291081813   -0.60071449798968
H         1.51918550669158    4.67642964153625    0.12332895146330
C         0.66346353869530    3.73124669903177   -1.59716464906083
H        -0.16540281438037    4.42098891048944   -1.65743470651729
C         0.77729513064424    2.69881659188241   -2.51516757671353
H         0.03817071138379    2.58235307589709   -3.29351143078758
C         1.84072826412325    1.81655082862289   -2.43141600790367
H         1.93134131751238    1.00977858984793   -3.14407106707989
C         2.79415193645358    1.96350680569314   -1.43756392361280
H         3.61870598973097    1.26810007139960   -1.38451596043940
C         5.66121248724583    5.93173050804308    3.82271277851605
C         6.79342225617971    6.36478177867543    4.53339554235080
C         7.03892072003901    7.70154901079473    4.78707098213157
C         6.14778312613795    8.67422393000670    4.34162233915707
C         5.01966361834019    8.27860052389698    3.63373218335539
C         4.79466488304322    6.93673778763833    3.37985215471408
F         7.66000085869507    5.45483542587705    4.99969988585392
F         8.12506080520421    8.06540649550123    5.48354058862908
F         6.36993452138656    9.97146198728506    4.60104447168572
F         4.14514267187807    9.19714780426817    3.19858024522225
F         3.69686507441076    6.59488388410262    2.68169372371204

