42
CSD_code = CAJFAV | q = 1 | S = 0 | Stoichiometry = C11H25FeN4S(1+) | MND = 5
C         9.40050409754993    2.77684845603410   14.61795221837193
C         6.90331811084856    2.55618430996716   14.82935839188262
C         8.25666300175141    2.14791228679965   15.41536969266517
C         8.38263060145254    0.65160326513922   15.45451294420162
C         8.61265936648269   -0.09677564273945   14.18038716306499
C         8.49478521933103   -1.35053882721981   16.75050517990716
C         8.83132763596881   -1.64474781953502   18.21824032742060
C         6.57952320913280   -1.30687602650679   19.10387563258187
C         5.66356576135089   -0.09243469762547   19.26562723134972
C         8.51982134291927   -0.70303497165318   20.46087587409166
C         9.24893920454817    0.64116562561195   20.57694520329716
N         8.29757194651638    0.07914286411616   16.60172283691826
N         7.97619855780632   -0.85638391415761   19.10496491493076
N         8.34501148386984    1.70123751437894   20.12229733313048
N         6.05987731953251    0.89958820556912   18.26158016239187
S         8.37020689010134    2.80793053191706   17.13595922247741
Fe        8.08198402333207    0.96363166487337   18.21642818999151
H         9.33806757868908    2.53188004140820   13.56071344921087
H         9.34859789119549    3.85754879332612   14.72351899979173
H        10.36067775437190    2.44342439752336   15.00528272393428
H         6.81165401150194    3.63817036431560   14.86278372613970
H         6.81042294618123    2.23079707091029   13.79529790128417
H         6.09146440285450    2.12438145489776   15.41089410994223
H         7.98768134384815   -0.98791550625575   14.14021469456220
H         9.65404534117087   -0.41428683989574   14.11226089345893
H         8.39308148260193    0.52254198609565   13.31765134801771
H         9.31837111403494   -1.70499800395849   16.12415884898111
H         7.59093639796693   -1.88178606828045   16.43481856955459
H         8.75267217148219   -2.72045626793100   18.41867695770482
H         9.86113621157345   -1.33122510389721   18.39904171921443
H         6.39099684388096   -2.04679007496904   19.88889703810375
H         6.36528667282941   -1.77232282865005   18.14325590177081
H         5.79514575630912    0.34860581326115   20.25450248537068
H         4.61653850237744   -0.39887697067810   19.16636425372452
H         9.19800369330017   -1.52310973307678   20.71444032931147
H         7.69670077425130   -0.71528066043086   21.17705790516647
H         9.59529174215735    0.78720270888554   21.60660580496117
H        10.12313687570708    0.64742691352237   19.91774049861980
H         8.84131950415438    2.58443138074466   20.03493117025813
H         7.59955447499631    1.85216751906089   20.79565202114747
H         5.66206312351702    1.81180142915462   18.47383470308039
H         5.69156561654626    0.63191535994652   17.35100142801177

