79
CSD_code = CAJGIE | q = 0 | S = 0 | Stoichiometry = C29H32F6N3O6RhS2 | MND = 6
Rh        6.67281612372743    3.69020412956941    5.91266641666892
S         8.55568244328202    6.22376577941843    6.77864952825352
S         6.39027600058909    0.67833457029037    7.48516345478905
F         6.34843798951764    7.67804724003217    6.67645566042555
F         7.18693114251929    7.53118445619566    8.65533696496773
F         8.07510983764979    8.85315380510342    7.20365168207784
F         7.06181132691846    0.66946967508568   10.05783183739960
F         8.50657231838354   -0.25788239707996    8.75136479282908
F         6.68566587575386   -1.29680722257991    9.25870189509866
O         7.58643280973296    5.14382895122418    7.05241289776585
O         9.68784515186960    6.22007304012257    7.64615996177045
O         8.77510061560771    6.49075490351923    5.38712339774611
O         7.15281288215802    1.91636031556979    7.37535112892224
O         5.00922604753731    0.85901883364224    7.85784648098742
O         6.63051076276507   -0.25822663876656    6.42011241800655
N         5.87106275108772    2.28258156700315    5.04163709516639
N         4.82237936877177    3.86113610710076    6.71102058384883
N         8.27143434722952    3.06323652192671    4.84235234598491
C         4.61537798492334    1.95629832377440    5.37987926485991
C         4.02992198591503    0.81363757926884    4.84597871926225
C         4.77454468691018    0.02540890004871    3.98096626243288
C         6.09256008105204    0.35034247306691    3.69625112449436
C         6.63566152006021    1.49559080163440    4.26870101745114
C         4.04766360655003    2.89095699856823    6.35572871907916
C         2.68723324581346    2.65122060559768    6.91104763082952
C         4.41144234873186    4.88794887463679    7.59013558840450
C         3.55576123326463    5.90195527180985    7.14260215041848
C         3.26194937103647    6.95294062721442    8.00272973383215
C         3.78326319234496    6.99849929883499    9.27973259394896
C         4.59254069683950    5.96935050454288    9.72520497735113
C         4.91639795650529    4.90504479416791    8.89899355389678
C         2.93743993064564    5.91337650839418    5.77428252691398
C         5.77383852160100    3.78846101195675    9.39160256009303
C         8.01561245097997    1.97376784101905    4.19305671019992
C         9.03786594824350    1.17411902254002    3.45638412869526
C         9.52388081623823    3.70676272179304    4.78714847900803
C         9.91030963267471    4.37844048301937    3.61907210602027
C        11.09303952293813    5.10390887999489    3.63023902929059
C        11.88516119999751    5.16421313208438    4.75829983070546
C        11.51523554919959    4.46545544536453    5.89160366545163
C        10.34216314823452    3.72974722631012    5.92709701000102
C         9.08899188748270    4.38838166741771    2.36280253221564
C         9.98996494966240    2.93053324734714    7.13803144867318
C         6.20848388176974    5.12451561522030    4.50676967258981
C         5.44203712347538    4.66963387179184    3.27405017519817
C         7.49840826586615    7.66187772569273    7.36600652531385
C         7.20088652849419   -0.09868156692673    8.97709197429083
H         3.02845194281964    0.53151531296014    5.12475961062806
H         4.33947749206083   -0.86681728073265    3.55923131783273
H         6.69384100702783   -0.29108129562705    3.07397800679792
H         2.38545422202352    3.46400572969653    7.56549208272293
H         2.74002120610468    1.72809966439520    7.48929787242970
H         1.95483819050028    2.52510749443367    6.11621639770885
H         2.61579735078819    7.74368899865620    7.65178483896154
H         3.55402393569738    7.82860719642789    9.92985912830126
H         4.98964842960910    5.99152153349374   10.72813945064181
H         3.17671239727609    5.02226041671986    5.20426861760357
H         3.28472617623440    6.78372321039365    5.22075540191940
H         1.85423561472926    5.98887414516096    5.86201154769848
H         5.93740957524543    3.86977365073405   10.46269565923035
H         6.74122461562727    3.82844605962018    8.88936644862816
H         5.32907025929009    2.81862814852291    9.16995628600413
H        10.02195885958341    1.62417458458066    3.55739471804556
H         8.78512961936185    1.09901352830138    2.39976296391175
H         9.05612681649636    0.16786670157451    3.87361799860988
H        11.37870489236717    5.63977312289793    2.73743007863248
H        12.79111521880684    5.75020833797638    4.75392965072777
H        12.13413657761006    4.50016481454070    6.77402879448603
H         8.77385479144903    5.40790068406346    2.15131001968110
H         8.20507025747168    3.76423290454618    2.43495034152237
H         9.69190404811191    4.04395517538923    1.52339347128092
H        10.74388107484703    3.06123305626159    7.90884322820828
H         9.90167507885796    1.86954838939394    6.90043225483926
H         9.03058567094985    3.25324158559595    7.53897954432297
H         5.63584504768935    5.89303154777300    5.02944384713966
H         7.16036431626966    5.56972773695070    4.21354769570680
H         5.99150258641177    3.93136337775268    2.69234572135080
H         5.27404152178331    5.53385599832747    2.62990581194959
H         4.46702614442100    4.25061394569436    3.52084293877902

