59
CSD_code = CAJHEA | q = 0 | S = 0 | Stoichiometry = C22H34Cl2Zr | MND = 12
Zr        8.41427959651956    0.66075744860463    4.50404695135168
Cl        6.84545126072148   -1.07337280069052    4.25102886788185
C         8.99540319344462    2.59243483795195    3.05460366959016
C         8.88815212689155    0.52968985081005    2.08190186387851
C        11.30090602711559    1.50268234572963    2.53939127441503
C         9.78343286753785    1.49897682868012    2.60964250252330
C         7.63437594379278    2.30528344511757    2.79158903979920
C        11.72458028809273    2.64745861609385    1.56926520711502
C        11.82401340595799    0.13989391562366    2.07692046020430
C         7.57158034531948    1.03673244292849    2.17847167859409
C        11.84932723306535    1.77860103125531    3.95156842673273
C        13.23780064823777    2.77818504691252    1.40168962352669
C        11.07819937466836    2.50221939281066    0.19096785353186
H         9.37153694857275    3.55161358496958    3.38709098589745
H        12.91016878672967    0.12609357986842    2.09615264551358
H        12.92807263131404    1.64576669336837    3.97377848153889
H         9.16034126509551   -0.39555695899750    1.58912163379242
H        11.40959904543628    1.07153546641390    4.66200111090187
H        11.49413572660369   -0.08821083946327    1.06766639270228
H        11.46723371473056   -0.63841192307419    2.74781650967672
H        13.45649807798115    3.63128300554558    0.76265119593107
H         6.81298093082280    3.00422007347977    2.88160972641172
H        11.35815544773775    3.58324422243487    2.00709964108706
H        10.00043374486246    2.39002154400570    0.27460295989696
H        11.28521865543371    3.38707870744350   -0.40697617576174
H        11.62722559610968    2.79827472059074    4.26422076170549
H        13.65679900174699    1.89346764026264    0.93073521103214
H        11.47855532257214    1.64111580507701   -0.33738696940465
H        13.73541595755883    2.93866032773015    2.35377854678372
H         6.68453129118646    0.57001046430187    1.76704214406387
Cl        9.98363097559630   -1.07272363893299    4.75711867087314
C         7.83325987828020    2.59239656113780    5.95358875157123
C         7.04517600389576    1.49896778153446    6.39850735877969
C         7.94040790171653    0.52961927249106    6.92621403134947
C         5.52770127608127    1.50268292288127    6.46879054314914
C         5.10405617975549    2.64748886219975    7.43889300889302
C         3.59083374370693    2.77815207977276    7.60659170033838
H         3.37215508764197    3.63113029895831    8.24583400025443
H         3.17181335113567    1.89322744017043    8.07733111294302
H         3.09316013412207    2.93888521998877    6.65455846049907
C         5.75051983412133    2.50234448983783    8.81716160832629
H         6.82829115046643    2.39031681435897    8.73347978013306
H         5.54338757637647    3.38717237237454    9.41510791876229
H         5.35033529054246    1.64119174241055    9.34556665707853
H         5.47035201740673    3.58328892092165    7.00099552053947
C         5.00459898116133    0.13991708894696    6.93133770923072
H         3.91845739050349    0.12606046207931    6.91190181235052
H         5.33431421318525   -0.08806454962217    7.94066883305497
H         5.36150265792914   -0.63843739242970    6.26059654850883
C         4.97919822637909    1.77863651141579    5.05664884743818
H         3.90042931158888    1.64595807454648    5.03453376324245
H         5.41873580091201    1.07145369287800    4.34623401272380
H         5.20144853023507    2.79824183532146    4.74387301445833
C         9.25701555702042    1.03653662779869    6.82959762876086
C         9.19427271509671    2.30516584578021    6.21661499961972
H         7.45715561812785    3.55160140448758    5.62114243150310
H        10.14402607106429    0.56976806372234    7.24107213141963
H        10.01569628844171    3.00408999643674    6.12668137199456
H         7.66816378161544   -0.39561731726729    7.41896555129112

