88
CSD_code = CAJHIF | q = 0 | S = 0 | Stoichiometry = C41H41Cl2NP2Ru | MND = 5
Ru        1.04011221783571    3.30413005304100    3.53037108299531
Cl        1.89958760514493    4.72928635312311    5.24814594052740
Cl       -0.25454601246791    2.11707186399128    1.94847365322088
P         1.61101758699297    1.24525242843533    4.42361206447651
P         2.76433613373610    3.52841591431556    2.10170851348355
C         0.08404153997964    0.69924506447254    5.26631909925318
C        -0.41601169277598   -0.59641106559333    5.30150392073364
C        -1.56894233249080   -0.86678035701223    6.01776423339084
C        -2.21918719286802    0.14047675170241    6.71159330606288
C        -1.70487102709901    1.42695791912522    6.70909872348656
C        -0.55494834218147    1.70173562420066    5.99390583337834
C         2.71296960275681    0.86680651507461    5.84004003800556
C         3.05010700574894   -0.45232834660432    6.13149823394837
C         3.80804587301949   -0.74518642499298    7.24883567058544
C         4.22395128610562    0.26950194453882    8.09629446600142
C         3.86286788668925    1.57816133216479    7.82909015888173
C         3.10480508094949    1.87584741096673    6.70995753379418
C         2.03825501364121   -0.08974237649349    3.26374025263249
C         3.38083361829548   -0.40596501184862    3.06043032273545
C         3.74200086509572   -1.33930459859989    2.10705113440207
C         2.76976329761145   -1.96588391850857    1.34389579022754
C         1.43457097285180   -1.65079765617072    1.53491818683484
C         1.06626634620744   -0.71253321671792    2.48349657791579
C         4.33125213296475    2.73909996792023    2.57889983726279
C         4.68542980597448    2.84221688591161    3.92272373020840
C         5.84280425856609    2.24715871581728    4.38748297529403
C         6.65608806034101    1.54504848529194    3.51077957529806
C         6.31506883455033    1.45307476091032    2.17100673221972
C         5.15595375223487    2.04570034456702    1.69970902727355
C         2.59878904216295    3.04070529679704    0.35221198858652
C         2.74387992312797    3.92793676731057   -0.70849447070490
C         2.59657938185596    3.47638472196330   -2.00886534120017
C         2.30384016156337    2.14618206894644   -2.25859188494038
C         2.16598671785241    1.25792621348442   -1.20362119243476
C         2.31298885107055    1.70252287207774    0.09565868048452
C         3.19389382123074    5.29539692997014    1.98403996272657
C         4.48709343968770    5.75835831499803    2.19595390837075
C         4.76051570890807    7.11419783956328    2.15481487848749
C         3.74269361683487    8.01836424983799    1.90871621732020
C         2.16062148226418    6.20780833253960    1.73533948263986
C         2.45076951856003    7.56351266804937    1.70354737864805
C         0.74347702594424    5.73222643053343    1.55606001967234
N         0.22217347207331    5.24493338047062    2.84314890183165
C        -1.23437905399883    5.42439943769021    3.05605486818645
C        -1.59659772170844    4.54573048538529    4.25885832495963
C        -2.04277667573491    4.98362690089345    1.83636212065313
C        -1.53207907210708    6.89138499076182    3.39416528922777
H         0.08863829084456   -1.39167315595393    4.77252575484831
H        -1.96214370528319   -1.87308146609663    6.03548030547512
H        -3.12202457757384   -0.07947494379840    7.26221609322312
H        -2.19874677220763    2.21093883891998    7.26500800791440
H        -0.11811973128598    2.69922278993046    6.01395632613443
H         2.72202311893357   -1.25169744293617    5.48226054994418
H         4.07143254401588   -1.77115259269987    7.46306874450109
H         4.81912101722480    0.03610410444488    8.96725509518567
H         4.16884677080688    2.37232204474446    8.49458282117308
H         2.81515645822533    2.89723676672636    6.51465008033211
H         4.13960644307794    0.07831637037523    3.65873485005472
H         4.78582756252270   -1.57527080948083    1.95871169859713
H         3.05338569044552   -2.69540121953337    0.59919331665051
H         0.67354152837935   -2.13018635942281    0.93656943668156
H         0.02727463699305   -0.44261679976928    2.59863248975751
H         4.04539908400139    3.40440354583191    4.58806258050294
H         6.10652310814976    2.32313857755163    5.43217354939782
H         7.55699596227925    1.07052398274596    3.87176993944394
H         6.95438140882774    0.91309210606685    1.48752477649768
H         4.89400383278970    1.96724479276769    0.65452202912577
H         2.97655451154226    4.96751868575112   -0.52209141622871
H         2.70858105459269    4.16933641151005   -2.83039688807059
H         2.18268456400211    1.80254889528464   -3.27548175613368
H         1.93812122019392    0.21918243418099   -1.39156466146176
H         2.19972569788952    1.02241312032484    0.92595028283242
H         5.28071201870463    5.05293856103336    2.39392638656458
H         5.76873658922626    7.46382027353122    2.31980746454014
H         3.95034170615534    9.07764828119785    1.88223149762560
H         1.65758415495093    8.27469299474886    1.51676322404279
H         0.14174843013569    6.56902019830975    1.18195758010520
H         0.69049696310068    4.91361121498228    0.82620358421821
H         0.67333115860476    5.81236494148318    3.57476460601410
H        -1.01728830598372    4.84548091725985    5.13702737941338
H        -1.41029945174711    3.48811031359837    4.01779922503154
H        -2.65233875590911    4.64175768964739    4.50336011005927
H        -1.91770941939304    5.66733468313285    1.00041992468069
H        -3.09882684721654    4.95619855944124    2.09379855258062
H        -1.73867959983760    3.98670752080698    1.52457531087558
H        -0.99047734019095    7.19781530489905    4.28849806446629
H        -2.59570116348873    7.02189386136569    3.57766662908577
H        -1.25051167348258    7.55276274288834    2.57708070730625

