85
CSD_code = CAJHUT | q = 0 | S = 0 | Stoichiometry = C43H35AgINP2S2 | MND = 4
Ag        9.16430310948607    4.29368195549469    2.07770102757052
I         7.86747816728917    3.82039340987030   -0.31635628428582
S        12.60305900330703    7.53459023920384   -0.09702976630708
C        11.50550776960688    6.23158243503196    0.35751617285856
S        11.70037191512840    5.31107125033454    1.70714191374266
N        10.52856717187096    6.10991660123542   -0.55044805415427
H         9.79109993809925    5.39769906423492   -0.46324344670930
C        10.55626562952453    6.99587912249293   -1.59483643402830
C         9.64469674538540    7.08088466423988   -2.63705691499566
H         8.81066529838386    6.39895898544052   -2.68112495217639
C         9.84432079585646    8.05616922166351   -3.59504199128417
H         9.14802317533021    8.14220801452254   -4.41459644770135
C        10.92676293242856    8.92657216113727   -3.52229124314346
H        11.05992057521451    9.67790123791903   -4.28533179278208
C        11.84070913840561    8.84575949562674   -2.48616686631664
H        12.68245355918232    9.51690507035748   -2.42502549647036
C        11.64364065342006    7.87399244180318   -1.52313094318623
P         8.81053499061731    2.91193730477153    4.16691201655121
C         8.59365186347956    1.10618635607998    4.01947783933902
C         8.66027235860828    0.25782267586884    5.12014404747172
H         8.85751275320739    0.66060472654586    6.10369162318178
C         8.47740091058190   -1.10162813505264    4.95066786956801
H         8.53019657597583   -1.76004382359508    5.80575140090010
C         8.22715883597281   -1.62137528684789    3.68980878203868
H         8.08552542020087   -2.68475193532599    3.56483874780388
C         8.16257646151141   -0.77997203826087    2.59193694178916
H         7.96969763029815   -1.18154109983919    1.60844605459709
C         8.34943015788339    0.58087561948982    2.75519723565766
H         8.30458149769841    1.24697206237800    1.90085030919252
C        10.11486715168293    3.01349194709294    5.43487333000678
C         9.87352257475105    3.00674174057273    6.80486982379109
H         8.86057263493195    2.94605637243436    7.17905089144572
C        10.93295635104655    3.09287258924349    7.69005561688477
H        10.74170355508705    3.08932155276170    8.75367804733217
C        12.23329916026810    3.18560918236832    7.22029854966335
H        13.05484400936560    3.25778605380045    7.91799730698231
C        12.47885429376613    3.19104081767211    5.85692235436614
H        13.49002548393806    3.26950085247796    5.48574274609218
C        11.42353007351864    3.10635979153763    4.96873414362051
H        11.61165039060992    3.12568786155209    3.90198692628115
C         7.30946613572854    3.39688142504496    5.07439260011851
C         7.30563299362081    4.58813852836336    5.79800605817082
H         8.21107034600621    5.17621244177544    5.87552271322687
C         6.15322164150594    5.01622143251325    6.42702494377667
H         6.16350025188848    5.93303847365602    6.99818293291047
C         4.98664163660574    4.27717272926189    6.31752574111941
H         4.08580378740453    4.61527095566605    6.80748073833284
C         4.97648876864413    3.10955495743830    5.57339525477471
H         4.06547747651982    2.53723179986298    5.47726519092516
C         6.13008687193870    2.66944605263417    4.95067542088727
H         6.11897728760584    1.75916562295886    4.36735568695119
P         8.48620319373239    6.69856604590763    2.83729669484192
C         9.44124552594150    7.48465471657952    4.17114818495340
C        10.24873926510757    6.65398907507711    4.93941479110773
H        10.31515471126477    5.60122510995779    4.69724223659467
C        10.98471004889899    7.16187427257613    5.99389952139379
H        11.60640101143301    6.50182217957472    6.58174679085115
C        10.92456646401511    8.51437059963617    6.28279914850338
H        11.49815919717262    8.91899089208222    7.10374444308230
C        10.13863670448029    9.35432687470015    5.50842203665881
H        10.10404348196801   10.41241022573185    5.72579451144525
C         9.40011236754806    8.84812980719448    4.45495599646815
H         8.80718379115270    9.51314516189475    3.84113361283479
C         6.75865615287582    6.80886040209156    3.42665396354450
C         5.87859345888624    5.85290523174676    2.92662359452663
H         6.24692598943982    5.09538303165716    2.24307642363153
C         4.55000657835243    5.85639244766675    3.30493200718595
H         3.87648667387377    5.11227016889065    2.90714043853636
C         4.09059568138805    6.81002972145489    4.19760553816395
H         3.05313626160957    6.81580701393681    4.49772094580211
C         4.96573308816042    7.75116814293347    4.71339721279527
H         4.61080294339124    8.48971807355674    5.41815112257321
C         6.29579034570097    7.75376150624298    4.33360656454721
H         6.97007168487435    8.48432157497143    4.75541268908294
C         8.51037193075959    7.96574434718771    1.52926129234846
C         9.63159971079583    8.76850263610940    1.33296303302095
H        10.46470649179581    8.71215141175264    2.02155414373098
C         9.68176723227540    9.63900355668905    0.25984987723487
H        10.54733473325011   10.27173242485752    0.12447417981713
C         8.63236859619063    9.69531415376344   -0.64224616781766
H         8.67981241873841   10.37160819842479   -1.48249376815376
C         7.53122941136390    8.87177903955758   -0.47170390669386
H         6.71938378032686    8.90007881975640   -1.18293299993894
C         7.46824272215401    8.00849295297314    0.60552950933209
H         6.61205044108113    7.36051520547595    0.73478797150859

