99
CSD_code = CAJKEG | q = 0 | S = 0 | Stoichiometry = C55H32CoF6N4P | MND = 5
C         6.90535862221487   11.10927089195823    6.33086302664690
C         7.14830789684988   11.67239755408796    7.60593636149578
H         7.68289482097700   12.58303222137084    7.79684761497214
C         6.59265761638046   10.82271437665749    8.52782149864058
H         6.60025010595562   10.92962937994391    9.59611692942748
C         6.00364428184730    9.74335820166557    7.80809231494581
C         5.39325352020077    8.56667212205548    8.24029667278954
C         4.97016862860788    7.57965123461594    7.33716107310360
C         4.28702652892181    6.37759180305291    7.69691765569577
H         4.04813043561374    6.07684961433306    8.69917452861324
C         4.00431540899466    5.71308027645267    6.54743578980310
H         3.49458456872898    4.77481990515160    6.44239414747774
C         4.52368480424584    6.50011667364244    5.47520424120797
C         4.47748696385389    6.17576154266132    4.11981096666988
C         5.04231091057430    6.95601266093056    3.10983383545840
C         5.08462161452670    6.62761166561501    1.71970718363342
H         4.70903702994102    5.72138351976092    1.28389865628830
C         5.68578148271596    7.66788322961270    1.08575141803867
H         5.87564510276887    7.76495817687452    0.03428993170054
C         6.03615870707739    8.63032422341966    2.08211022158535
C         6.66794358333340    9.85769062451757    1.83703464692937
C         7.01420276174053   10.72315403434022    2.87327107368163
C         7.77828522551867   11.92645112461895    2.88466210477332
H         8.19083718367478   12.41042751499313    2.01946366806690
C         7.89397125045748   12.32477154531849    4.19232336098420
H         8.41645568631910   13.18296617306768    4.56934072281107
C         7.20257309289033   11.36856599381057    4.97566134071447
C         5.18330190226852    8.36851598487273    9.68511387863866
C         5.79734323066361    7.34128963778781   10.39880110728031
C         5.61918025537707    7.16610069713630   11.75869500180039
H         6.12551644568026    6.35419520466469   12.25571734445883
C         4.80124591923188    8.04077110872215   12.45239379423970
H         4.65546808018136    7.91489098842398   13.51337879242535
C         4.17071058601825    9.07757638771271   11.78665045918249
H         3.52623382672657    9.77046941481315   12.30364572949511
C         4.37231540986584    9.22371623429993   10.42753407128835
C         3.77976745641242    4.93601803607046    3.71998170226517
C         4.25571302231802    3.66791924512949    4.04231234289338
C         3.60427652774786    2.50776662246833    3.66441832796898
H         4.02514461544378    1.55379635069376    3.93901882608551
C         2.43037969387012    2.59785708316313    2.93740249651180
H         1.91383721447686    1.70047997606408    2.63610784239707
C         1.91842381320034    3.83739757361985    2.59447350038097
H         1.00479153064605    3.93344564527768    2.02995385374754
C         2.59673357828451    4.97528913095731    2.98746801248893
C         6.97642710359160   10.25864589401235    0.45441771736056
C         7.84784137836748    9.54948264258100   -0.36929189791427
C         8.13896794370887    9.94096354937081   -1.66307163433797
H         8.82626524914336    9.35232141761321   -2.24946228337399
C         7.54862143914754   11.08400706633471   -2.17285288338407
H         7.76742988420819   11.39906311383819   -3.18070211007850
C         6.68271306563791   11.82661820721204   -1.38879767616587
H         6.21241349242423   12.72244095155800   -1.76149087988752
C         6.41725416567403   11.40881456861052   -0.09872384103081
C         3.83839224530476   11.80669270146984    5.52384335101479
C         4.67628852184075   12.77081614570513    4.95862823891875
H         5.17115746030211   12.56585267396683    4.02102761856486
C         4.85245966416827   13.99479639666976    5.57480388253021
H         5.50548968285447   14.72866556449139    5.12647709058740
C         4.20091931811616   14.27284184172988    6.76501678035760
H         4.34999345234064   15.22288270440322    7.25624564805641
C         3.34627527602078   13.33307638826198    7.31470244096906
H         2.82020646460311   13.54958613479221    8.23234552947583
C         3.16145736640435   12.10657448722952    6.70051874721075
H         2.47896479362753   11.39740137596699    7.14049706767349
C         2.38767739988849    9.27065133951674    5.40287374444640
C         2.39668582508997    9.01363160162296    6.77358337432672
H         3.19477163938390    9.40619783400467    7.38267199913670
C         1.40302940129965    8.24600126257598    7.34940338505568
H         1.42298391776568    8.05532613398221    8.41230626571135
C         0.39356700397650    7.71402035605054    6.56389264035355
H        -0.37623932387840    7.10259515085829    7.01097948470692
C         0.37694620848842    7.96812539861037    5.20333630983109
H        -0.40692002506938    7.55697999490370    4.58472465570387
C         1.36553249812098    8.74219784280247    4.62122540607338
H         1.33487940859044    8.92784578241817    3.55896247169660
C         3.24150347464048   10.58936694564217    3.00402306002501
C         3.15210119736349    9.55318397436466    2.07607084421391
H         3.36333355370599    8.54150323310491    2.38155484329710
C         2.77029748464311    9.80624477610971    0.77217313914826
H         2.71884346320764    8.99102817562182    0.06579705774440
C         2.45969284133483   11.09665682006066    0.37788477583545
H         2.17634464719085   11.29970726266063   -0.64427583785959
C         2.50130993914240   12.12347127895473    1.30493161282021
H         2.23781931883035   13.12860494136346    1.01140796528619
C         2.88687646765534   11.87619100135479    2.61050417638926
H         2.90282201597048   12.69085482578007    3.31795137982554
Co        5.70024294202258    9.08245848399073    4.94195870434667
F         5.56769781483464   12.14221919928899    0.64958081563347
F         8.45302997226404    8.44944613303872    0.11502329153111
F         5.40329627328091    3.56116900806800    4.73426425851952
F         2.08190550354693    6.17800824303099    2.65363630058988
F         6.61283967226947    6.49428078328499    9.74678589034481
F         3.72873487000600   10.22442005648541    9.78850524809355
N         5.64438445501824    8.16727483299373    3.31299497147236
N         5.09435128358592    7.63839285188646    5.97267034603917
N         6.20693197430599    9.95823540745366    6.47912458804056
N         6.69294668787954   10.41499624753413    4.15925513333743
P         3.79627128286786   10.18532738835115    4.69619872198403

