68
CSD_code = CAJKOP | q = 1 | S = 0 | Stoichiometry = C22H39N2O2P2Pt(1+) | MND = 4
Pt        8.59806322675712    6.69197807828959   32.32173551710620
P         9.49461978252364    7.16902987543665   34.37366486028620
N        10.57019664828928    6.36946087914002   31.86729411870789
O        11.11189407378373    6.99535185348869   34.00985063699383
O         9.92563252337588    5.75980808649740   29.74879287090993
P         8.33974583980935    6.10913890423684   30.12462439084074
N         5.61699255212526    7.18703622254968   33.00935393003726
C        11.50446714077728    6.57558818714837   32.79948803892579
C        12.85107742215742    6.37004594471405   32.52766815871098
H        13.58209343991707    6.54471395241206   33.29796805300411
C        13.20389571661849    5.94214962370868   31.25808735556234
H        14.24125233449960    5.77406990582788   31.01806188264142
C        12.23070208266093    5.72914726092378   30.29530742743700
H        12.47119826038323    5.39686106804842   29.30030920167787
C        10.90497101632560    5.95710433062994   30.64167029024715
C         9.29264294933436    5.83835309974343   35.66941309802309
C         9.61320883096248    4.54695414751923   34.90791312797541
H         9.35755769865364    3.68184016038669   35.51585635242319
H        10.67260728078775    4.48094020232637   34.66110944020093
H         9.02216340668467    4.49247124081182   33.98537868962219
C         7.82809675566838    5.81331464475431   36.09887066539597
H         7.63384494680246    4.91830357919302   36.68614182088739
H         7.16807034669176    5.80230674396568   35.23026315814133
H         7.57309782691690    6.67363333049468   36.71004397949066
C        10.22907473374745    6.01416646392290   36.85755038689960
H        10.22229798479014    5.10930247060428   37.46249070577682
H         9.90847117939433    6.83758794499359   37.49052433575220
H        11.25091945493857    6.19630426650297   36.52900841748134
C         8.99869592618689    8.60326628279276   29.40731795115563
H         8.78337902738205    9.54324965862881   28.90386896869646
H        10.02898554860650    8.33054257476310   29.17977772203350
H         8.89847245302347    8.77254811022541   30.48658907792830
C         9.48183765935829    8.95246588029481   34.92449395627499
C         9.53102099886255    9.71851121359613   33.59687174626040
H         9.47956370185084   10.79000949108533   33.77852060578236
H         8.67492569788681    9.44358330999236   32.97026021250901
H        10.45923319329794    9.51731466901263   33.05923789877146
C         8.15757672227743    9.23494527353237   35.62658372549053
H         8.01022044746303   10.30944124206546   35.71399168230207
H         8.14631377615840    8.81716613940488   36.62991437296971
H         7.32155760922525    8.82266483752665   35.06059313113639
C        10.67359143198715    9.32393211459565   35.79882964308791
H        10.67136183927256   10.39939445524843   35.96606677828922
H        11.61369326508741    9.05771578668205   35.32047715592592
H        10.62672273618270    8.83568059353045   36.76761995626213
C         7.55412633687207    4.45459682551029   29.76472988494522
C         7.93393789024678    3.62277186767933   30.99586701304347
H         7.48905662908451    2.63193692945958   30.93206531041428
H         7.55586853950502    4.10162987374764   31.90630647257052
H         9.01550094311245    3.49672111517070   31.06893066946864
C         6.04022259891631    4.63511900715581   29.72015429586569
H         5.55258343956548    3.66467936029393   29.78557188978007
H         5.72588624943795    5.10087999931990   28.78981489892860
H         5.69641230897265    5.24475969201873   30.55649943850383
C         8.08129826761957    3.79849009212422   28.49415174084671
H         7.68453720342435    2.78745679977191   28.42407224129039
H         9.16734780703322    3.73614229660966   28.50220702293333
H         7.77141261440386    4.34070817666201   27.60581912612129
C         8.01551293803364    7.52140049407144   28.94531230215233
C         6.58897674715941    8.01381715920323   29.17400338828115
H         6.44358652088688    8.96425302932315   28.66484258850999
H         6.39416421055284    8.16213933898864   30.23711238902898
H         5.85475468792658    7.31398585141103   28.78686722504915
C         8.26093265226968    7.15160159759725   27.48837004399606
H         8.27059195439296    8.05485154862968   26.88101777723600
H         7.47214209002826    6.50676676629590   27.10958667142070
H         9.21893821606617    6.64904725659015   27.36619039693631
C         6.72020166499026    7.00275082108355   32.75475171662436

