29
CSD_code = CAJNOQ | q = 0 | S = 0 | Stoichiometry = C10H2F12O4Pd | MND = 4
Pd        6.11758213450069    6.25259696813340    2.43999062011408
F         2.20304712839036    4.47321565512585    0.88283070596129
F         1.34291270199349    6.42235554725940    0.57526716189643
F         2.45502551671188    5.47919577190023   -1.00389620946072
F         6.35365586527297   10.32589408908431    0.37342287421400
F         4.21299184537678   10.52802351544149    0.48418075774687
F         5.12149826296981    9.67355766374144   -1.26643017071416
O         4.39679304038773    5.64460614146535    1.63193595729610
O         6.01778901565458    7.99812941352500    1.47715589779416
C         3.70924103862522    6.32450178074667    0.83301648799995
C         3.95464810738494    7.60388137254230    0.33307384764102
C         5.08945583637282    8.32774147139836    0.70068517945759
C         2.41144316207962    5.65608896082883    0.32284499898478
C         5.20799718850168    9.73382451322241    0.06804106586348
H         3.25013254742374    8.04374833932115   -0.35441065411577
O         7.83639570876581    6.86213411355768    3.25116984343001
O         6.21561407834340    4.50841271767035    3.40552832588211
C         8.52400415804563    6.18214530925395    4.04995967065213
C         7.14407221458143    4.17867497661760    4.18178063443818
C         8.27878976798529    4.90258999354798    4.54955428388307
C         9.82254597475061    6.84985994355631    4.55912604670377
C         7.02626215027723    2.77200798180275    4.81320856916868
H         8.98356690532583    4.46251216948166    5.23663152684844
F        10.02655549607700    8.03652579140067    4.00562162469114
F        10.89128520317355    6.08695654132987    4.29738208081616
F         9.78436965547691    7.01842794869739    5.88708332477445
F         5.88068736053704    2.17976724991651    4.50774269477217
F         8.02146306594056    1.97853974914942    4.39586034806129
F         7.11337486907362    2.83098431028140    6.14774250519943

