43
CSD_code = CAJQEJ | q = 0 | S = 0 | Stoichiometry = C12H18N4NiO4S4 | MND = 6
Ni        2.57998953621417    2.98162557593926    8.05072166024164
S         3.72617113895375    2.02960056146576    6.12182780070298
S         3.64519849671692   -0.86603097829807    5.65046468786970
S         0.33614853624552    3.19716430123317    7.11894724944049
S        -0.36402377791458    5.55854466714493    5.52081364033802
O         1.79639054721500    3.36567674123124   10.08257392155783
O         0.91718715060250    2.04016109384856   11.66675943486936
O         4.52438651365712    3.37632308559525    9.03186000092690
O         5.97658695580747    5.08537505484566    8.93056820754213
N         2.37323018960369    1.26585341985075    8.56796800359413
N         2.69012925687131    0.23396791625045    7.81664023774615
N         2.78490078329340    4.69395226799440    7.52264134284834
N         1.90379077932690    5.34333346646399    6.79386502752647
C         1.53504065407307    2.23906175039961   10.50146171866535
C         0.56844786840583    3.21553540893908   12.38421799201504
C         1.86926842217923    1.03881004072307    9.75723428575419
C         1.63863142682279   -0.34238514751665   10.27017808000955
C         3.27611623482809    0.49011446001635    6.66840410032618
C         2.93808727857712   -2.23656432522479    6.61228053350931
C         4.80294525519223    4.51395531000309    8.65612548336303
C         6.88961825874904    4.28614931273448    9.66910420037794
C         3.88230957576678    5.31946920914036    7.87546614184010
C         4.15747385329447    6.72699934960317    7.46662855453997
C         0.77530552817434    4.72359128968097    6.52911696534149
C         0.56161638814916    7.06877105418812    5.11343652771513
H         0.07574753590328    2.87935737573989   13.29284074990511
H        -0.10388165363820    3.83650815083102   11.78889229245751
H         1.46356442901532    3.79417220502551   12.62178266727362
H         1.03178202396330   -0.89892918836438    9.55671455627950
H         1.14058365807120   -0.30592209080795   11.23294575258928
H         2.59059223787991   -0.86398094076097   10.36736968619510
H         3.11851846371996   -3.13859723946723    6.03731666003265
H         1.87422192445158   -2.06803154855635    6.73865859077539
H         3.43283160868299   -2.28816354748342    7.57585635638840
H         7.77595175455321    4.89784207718727    9.81576753717408
H         7.13540328966751    3.38028560116667    9.11142697695051
H         6.45370770498802    4.00079873834032   10.62872251927532
H         3.36222488273153    7.37733543518956    7.82971812517587
H         4.16565460230448    6.79634483421108    6.37903939914832
H         5.11281020524234    7.05277158684014    7.86339585411649
H        -0.07905839372313    7.65415055708058    4.46254773478514
H         1.47925268828888    6.79477110135494    4.60452783243047
H         0.78014618710239    7.61013200622176    6.02727091038079

