30
CSD_code = CAJROV | q = 0 | S = 0 | Stoichiometry = C11H11F3MoO3S | MND = 12
Mo        5.63518185611426    4.43697979612411    9.98007114244600
S         6.87163350575536    1.64853729549351   10.14219136520940
F         9.40348739593355    1.34599836224467    9.43771667005593
F         9.07705641121741    1.34481867327534   11.56777166665786
F         8.61220048662957   -0.40990512790739   10.40552234657716
O         7.29060165185927    3.07439280436579   10.22166951298721
O         6.48095562611418    1.25610267895097    8.82680152401750
O         6.10196090460263    1.23010361692634   11.26869938385861
C         6.79158000505756    4.34565950305602    7.86200919987081
C         6.87492086735731    5.61544396522520    8.46243124156759
C         5.54592111409276    6.13414316367162    8.56818389523128
C         4.64088385725312    5.13423643030701    8.07531263124233
C         5.43631160128333    4.03260290668865    7.65140640817031
C         4.11165466828810    5.12599053270518   11.50576965289939
C         5.14087392617744    6.11267488666166   11.33211440365781
C         6.36560356647366    5.56286431858559   11.82467495384531
C         6.08100190310743    4.28526062742640   12.34487129079733
C         4.72010232944059    4.00217937824840   12.13076555599913
C         8.58381968317780    0.92031973248878   10.40184235911217
H         7.62661825659743    3.71930875212241    7.56710951551871
H         7.78243071074098    6.17528075342829    8.61971521634420
H         5.29847323513250    7.18363951514179    8.68964203892360
H         3.60620988146093    5.29282734196322    7.80383383399870
H         5.07759305079206    3.15228537625865    7.13578047294610
H         3.04650002098145    5.30418720922595   11.44916068125154
H         4.96129928592555    7.16904530105057   11.16205748947385
H         7.28680375062154    6.10441830855835   11.96602952945084
H         6.77551830493076    3.63616092442298   12.86735430438285
H         4.20724402990185    3.12154729315962   12.49225096273462
H         4.87625811297977    3.08249568013117    9.85294075077144

