31
CSD_code = CAJVAL | q = 0 | S = 0 | Stoichiometry = C13H13MnO4 | MND = 8
Mn        7.97424129840843    7.57523948575353    0.84889415822107
O         6.62584235400117    9.51603429830821   -0.88708075860269
O         9.70072675884513    6.30688690000229   -1.16293589988648
O        10.21885366781543    9.26943889098306    1.69935102294285
O         3.43099371562365    5.74264409319062    1.91979162326727
C         7.18872711702848    8.76529132113911   -0.22775844413795
C         9.02940871011628    6.81515532840584   -0.38045618097165
C         9.34317584196653    8.61010657451539    1.35097429844847
C         5.27419933271529    7.31972496161629    1.65326979437306
C         6.37701868165388    8.06930233296531    2.36277325924946
C         7.40814821428410    7.32854520612445    2.93232960649265
C         7.77913169364846    6.08408268903788    2.36229468358247
C         7.04940573147649    5.62849034605078    1.22885829369584
C         6.01586634387992    6.39497446695182    0.71554912166137
C         4.37377639885897    6.52695018057088    2.63560671306543
C         3.57797392878590    7.45085979889848    3.57710797746804
C         2.16518355545187    6.86900953930100    3.52658152435858
C         2.13835602055773    6.27655536151907    2.11982196403818
H         4.63028409628058    8.00156752610108    1.08809855745088
H         6.12790029237420    9.03345704428905    2.79753660905502
H         7.98337040413020    7.72879665775626    3.76599170044658
H         8.49104000443254    5.43483367509995    2.86080069070716
H         7.35461536048338    4.70860914146383    0.73372206854381
H         5.48090502366610    6.04212422245558   -0.15968312893605
H         5.00497495839129    5.82621612339173    3.20211839653139
H         3.57797179099877    8.47052388623537    3.18786906150652
H         3.99398631519473    7.46320939017495    4.58233378563166
H         1.39088165331606    7.61613880934706    3.68218409509078
H         2.05222537046196    6.07530732247164    4.26562243911107
H         1.92721803781219    7.05766079625285    1.37415822374682
H         1.42309732734027    5.46296362962692    1.99417474384848

