45
CSD_code = CAJWOC | q = 0 | S = 0 | Stoichiometry = C14H24N2PtS4 | MND = 4
Pt        4.58998423388909    1.69326689420133    8.03577080538294
S         4.73055765949519   -0.08692011701707    6.50827753494330
S         3.17502724888094    0.03710480890712    8.91229339737620
S         5.96910555214278    3.36625695702894    7.13419107931141
S         4.41680390867376    3.48927236040356    9.53985071444911
N         3.09878812965737   -2.07500703414577    7.27457319476032
N         5.82159916558684    5.58406553984252    8.62009524138419
C         3.60593019528334   -0.87455252857089    7.53015342787578
C         3.51023186666819   -2.82712240559743    6.10934502500185
H         4.41783065071254   -2.35491960570472    5.72584768619153
H         2.73583364833459   -2.74741197898658    5.33633403405550
C         3.78850138849641   -4.30075035138489    6.41474922708662
H         4.38998152084318   -4.68694412541998    5.59035348599406
H         2.85748361998444   -4.87059434008659    6.42629250094644
C         4.52604253634681   -4.51808374176195    7.73891414889854
H         5.21459395886879   -3.69068597946086    7.91838160435789
H         5.12132504405791   -5.42975938148728    7.66020984711101
C         3.57768161480319   -4.67395506054759    8.92889567578002
H         2.81891720348521   -5.42046999996484    8.67984783440854
H         4.14182266842865   -5.05478876229463    9.78255893436737
C         2.89314979647420   -3.37682561346400    9.35082257428520
H         3.63104674613092   -2.68358772564838    9.75787269585261
H         2.17179070903522   -3.59250520345638   10.14028310808661
C         2.16473955089637   -2.67715212658020    8.20117573624650
H         1.53762966659399   -3.38011979674594    7.65130474746340
H         1.53158649515494   -1.88270335021297    8.60702957490845
C         5.44667039314766    4.32079949353732    8.45466881635492
C         6.65332537510289    6.22630011386923    7.62487205832732
H         7.38631443661865    5.49491473564841    7.27202686134926
H         7.18238515409064    7.05320737604881    8.10016855056343
C         5.82132246195942    6.71798516682744    6.43807108654884
H         6.49742923719763    6.97248834501097    5.62061725246672
H         5.19089041431667    5.89387559396071    6.10035243972703
C         4.95461182064180    7.93019069488623    6.76822424245072
H         4.33013509426687    8.14792898608731    5.89946775053688
H         5.59491903169872    8.80015019502697    6.93607098358718
C         4.05346333791228    7.73820214631875    7.98940039859334
H         3.32653511174732    8.55248927761967    8.00372784483641
H         3.49737286361572    6.80363895182493    7.89841004342269
C         4.83022331800618    7.75367502054731    9.30888947822380
H         5.66308108656575    8.45431879793447    9.22435576028728
H         4.18646359974344    8.11646470349777   10.11160943375501
C         5.33502480710619    6.37126257079934    9.73149668886924
H         6.13500510709353    6.47802802407306   10.47428098964409
H         4.52014257028498    5.80817247470529   10.19226548393128

