59
CSD_code = CAKBAS | q = 0 | S = 0 | Stoichiometry = C14H32B10N2Zr | MND = 8
Zr        0.97588061241440    3.09788555021869   13.64128872860625
C        -2.07568746776487    4.06340236345828   14.46950125109267
C        -1.20473713097483    2.96368756072160   13.61427167039982
C        -1.28827543362574    5.16740001036983   15.23380885832193
C        -1.58029420660881    5.13078446533706   16.74678459037768
C        -1.68617532764092    6.58176347341711   14.76804195050241
C         0.21257050171050    4.99523906232897   15.02534172835439
C         0.99164774677865    5.56690159858404   13.98719390805142
C         2.33528490991222    5.17317856486223   14.17082780337654
C         2.39852327016307    4.34641694150756   15.31073603445986
C         1.09181705996105    4.23853766989318   15.84155700778146
C         1.59557680589680    0.71244975492555   15.55897850805967
C         1.59994076248826    0.18366575718474   13.24657707556594
C         1.23623425044009    4.13487685353214   10.72323771815083
C         3.07757376975528    2.98810355780112   11.68220591641422
N         1.59161001831693    1.26214314304732   14.21990991107980
N         1.63870642391919    3.17958268899141   11.73055352743271
B        -2.10791697004904    4.13103533007786   12.75517412129681
B        -3.58464006273196    4.37448547546497   13.68725963408894
B        -3.50606725924101    3.33636094894060   15.10497604016991
B        -1.97956871415144    2.44892829631506   15.04685085087341
B        -2.06824389427574    2.46028361555310   12.20712289799525
B        -3.60346645400279    3.35199809240649   12.22943612886616
B        -4.47971052682832    2.84497587816687   13.70204109152791
B        -3.48346376037861    1.64368747709425   14.56738850287309
B        -2.00435018304804    1.42684877774588   13.62072200238305
B        -3.54491552435841    1.65135402416807   12.77641324920993
H        -0.91790969670139    5.82774966949400   17.25744273451463
H        -1.43479053295505    4.14215031887876   17.17077788565387
H        -2.60545665725864    5.43355182187959   16.94322843524518
H        -1.02689115396429    7.31140419964273   15.23514163018512
H        -2.70647535093954    6.80795752143518   15.06642238392042
H        -1.61751224952161    6.69575863566524   13.69089178920254
H         0.65526456204190    6.28831060325097   13.25223772177897
H         3.18616569513024    5.55497070183131   13.61759145034609
H         3.30571797678832    3.97689902676264   15.77838475954727
H         0.84565620914199    3.78241284267297   16.79298292401398
H         0.68003197157365    0.12579020271927   15.77158365613960
H         1.67870567087349    1.50986832325806   16.30490217664904
H         2.45292312409085    0.02985114610552   15.70172171713556
H         0.78654574008491   -0.54177419497086   13.43106165706046
H         2.54758067372519   -0.38538718794687   13.29232355050519
H         1.47816802094836    0.59091348282677   12.23559197373577
H         1.53842699784631    3.79579993430536    9.71727732810159
H         1.70369767052864    5.13244124705811   10.87521882066496
H         0.14829198231000    4.24645093361620   10.72215775221317
H         3.38145882545848    2.49982952908750   10.73769471678538
H         3.40608240641413    2.35214811662503   12.51813093334157
H         3.62965377956351    3.95189823320833   11.72517620580879
H        -1.50705992491751    4.99768912962447   12.22006106820202
H        -4.05988582533913    5.44540381135636   13.76811117324301
H        -3.93249013426972    3.71415920791828   16.13196179045426
H        -1.28772630228884    2.22178572606544   15.97953246542324
H        -1.40926227385107    2.19201694673120   11.26035564354412
H        -4.15475906980665    3.69260919235783   11.24718282000534
H        -5.65539546515459    2.83348292984583   13.75545887523561
H        -3.94857650945790    0.78272645794604   15.22087349013098
H        -1.32068678658831    0.46512939973714   13.61064493245115
H        -4.05374658960016    0.78262515888907   12.16777483137760

