59
CSD_code = CAKBOG | q = 0 | S = 0 | Stoichiometry = C13H32B10N2SiZr | MND = 8
Zr       -6.18218727702797   18.93752153540123    2.50041299998044
Si       -3.88443570643953   17.44954156864780    4.85025172746569
N        -7.91827528248134   18.14491910598813    1.82625997480932
N        -6.31903678759975   20.87001324623325    1.90279183293668
C        -5.42087409278983   18.23257976408480    5.67225108990139
C        -6.49398887139224   18.94733806708754    4.67105938004469
C        -2.27832959407768   18.25310989057902    5.50751163499313
C        -3.81339481696809   15.57385470425356    5.21812037868280
C        -4.08977594655905   17.75974741191005    3.01187391619658
C        -3.69370894034846   18.91863893438862    2.28748035489133
C        -4.11734214445542   18.77856001232687    0.95530728321500
C        -4.79719864685415   17.54533497906801    0.83585113957776
C        -4.78033165417670   16.91878038612591    2.09509803397994
C        -8.30375127535743   16.75186673401664    1.75078195015040
C        -9.09675213325255   18.98425235454301    1.69771306215079
C        -6.55878165362433   20.98907547519947    0.47535959142301
C        -5.50142200094695   21.97394663632861    2.35392844692222
B        -5.51280903457502   19.93243572109085    5.67292331445058
B        -5.31322805625976   19.03840815277667    7.18269417836734
B        -6.18171900313812   17.51274998621171    7.02782498392615
B        -6.92162647122359   17.46577932343925    5.42102955736137
B        -7.22083389890042   20.29410864357044    5.46968584701302
B        -6.47676116166492   20.37593637128559    7.08447174328749
B        -6.90385457966590   18.85570290311408    7.93556918844397
B        -7.90824031935410   17.85769493891890    6.83913193349436
B        -8.08696316435536   18.77306701202553    5.33081207543011
B        -8.09468143027460   19.64171982878467    6.87605018684066
H        -1.41916999001931   17.90107307164886    4.94544490634372
H        -2.11441912051703   17.99808320871474    6.54895941399159
H        -2.29840287233667   19.33570979442210    5.43713202755079
H        -3.02922037240105   15.10090200673666    4.63557837667598
H        -4.74699226040042   15.07140969360539    4.98664346080511
H        -3.59751839885820   15.39120784011726    6.26528883145832
H        -3.05731428471646   19.70866728733646    2.67162318819695
H        -3.85598330378386   19.43322296124298    0.13220697844646
H        -5.15275379913319   17.10778140623536   -0.09096028204728
H        -5.09240469269866   15.90142453651388    2.30484701353813
H        -8.99030425137530   16.46970356995629    2.57255431470933
H        -7.42515140476015   16.10037153974373    1.79810701287006
H        -8.83332066952947   16.53721975643206    0.80409454294763
H        -9.89365922784189   18.67585462237155    2.39825736193527
H        -9.52833383327288   18.91630196802087    0.68057867289575
H        -8.83882696698545   20.02905403175080    1.90778745543808
H        -5.61931859697112   21.16277533097407   -0.09052252659351
H        -7.21725467069619   21.84907015145129    0.25209388494497
H        -7.04004039224643   20.07785418284772    0.09052101591097
H        -5.99158251903576   22.93949629265940    2.14034312757780
H        -4.51296414801031   22.00140414261948    1.84578336644701
H        -5.34481708918388   21.91420957510662    3.43450858448058
H        -4.62775646890637   20.51885762369280    5.14396739457264
H        -4.26669265921635   19.05489617395773    7.72036537760810
H        -5.70327591934458   16.53182115717578    7.46767873315398
H        -6.93733332668865   16.50690508684678    4.72253176861769
H        -7.53760384213658   21.20554689946186    4.78376271735776
H        -6.30617881915838   21.39318720793050    7.65193273955692
H        -7.02802773304858   18.81100963121232    9.10557210987306
H        -8.73987712552335   17.12337513224952    7.23274444800612
H        -8.98452615775813   18.68308575204843    4.57133319091640
H        -9.06887113967167   20.15473467751047    7.29289498587418

