40
CSD_code = CAKCUO | q = 0 | S = 0 | Stoichiometry = C19H13O6PW | MND = 6
W         3.91949032767075    5.71452068092889    1.03961206902405
P         3.27138181150380    4.63633564717505    3.12028039012744
C         0.96622084898250    6.36872308218792    4.05738879590462
C         0.68411894820479    5.26304643561676    3.24317844441962
C         0.16801307936741    7.50476864005525    3.94757106126872
H         0.39850714570721    8.37656265588559    4.54085054001523
C        -0.37640056227939    5.31969016685223    2.35292873227728
H        -0.58652073185357    4.46572306013742    1.72486502648539
C        -0.88613036022845    7.55026627792183    3.05463400610257
H        -1.48520744058186    8.44493551661374    2.97667244662295
C        -1.16120301461096    6.45585805738946    2.25438109013763
H        -1.97706401229070    6.48724591275725    1.54840590330982
O         4.21910481131375    3.37494297881346    3.44393495899244
C         3.26850740279275    5.63394669693439    4.64026190903988
C         1.54184947773755    4.03764310653665    3.33706425797321
H         1.28636337117679    3.31298444726199    2.56021258497218
H         1.44048700448203    3.56460706412825    4.32284783767411
C         2.11632971976982    6.35793792894398    4.97255475771734
O         4.78809404583100    7.11922418796078   -1.61710403111498
C         4.46966622390028    6.60410139115844   -0.64853950331936
O         6.22948475794620    7.07368109911090    2.67392481507301
C         5.40477152387609    6.58512057132325    2.05430912540680
O         2.08460449495037    8.18364516081667    1.66083030769906
C         4.40953828372949    5.71809902161805    5.42517215646619
H         5.30178861505765    5.18920149615307    5.11585080899525
C         2.74025467499092    7.27108238206078    1.45660533871954
O         5.77350557757947    3.25172156573624    0.44606004323768
C         2.12173312342975    7.09269386554513    6.15529124243571
H         1.23119230826923    7.62257745034486    6.45874975310935
C         5.10058199935544    4.14939156820419    0.64466355778943
C         4.40361179661211    6.47166796313547    6.58563521080548
H         5.29034753342917    6.53213523743605    7.19840221647162
C         3.24941756880241    7.14223265366731    6.95593903958488
H         3.23042370080730    7.71741481204210    7.86976620306897
C         4.05668205821970    2.51465111770351    4.56956855312682
H         3.76932111810957    3.06873511328633    5.46596239676250
H         5.02243625750230    2.03677123851601    4.73446631126515
H         3.30988199406931    1.74703662306306    4.35861958587362
C         2.39834636156303    4.82977970197984    0.09821159678693
O         1.50836815510532    4.32449742299947   -0.40932954030779

