50
CSD_code = CAKCOI | q = 0 | S = 0 | Stoichiometry = C24H19O5PW | MND = 6
W         1.71785123484842    9.51004097923469   10.05830026011922
P         3.67848487379885   10.52573467720058    8.98893154660311
O         0.02676337129788   12.07104705274479    9.39937557905622
O         2.76244258782020   10.83340529663271   12.70615496693643
O         3.43384521185983    6.97450485749415   10.75216962394083
O         0.67588827649964    8.17212010409878    7.41778868596182
O        -0.73456340433645    8.24827893704453   11.53574728766993
C         0.64195849638103   11.13780163758719    9.63669660296595
C         2.36897205309377   10.35166394178747   11.74794812810697
C         2.81242836375311    7.89234862052673   10.48186094492783
C         1.08067512386983    8.66314832663787    8.36504965977623
C         0.16043679476161    8.70698882308995   10.99386882198079
C         5.26027620864422    9.93239844346537    9.63032137391305
C         5.95490391694096   10.58232308776573   10.63880643371539
H         5.55764536381326   11.49455674048592   11.06107443122005
C         7.15233180990247   10.06667737782556   11.10278657143140
H         7.69406251534837   10.57568448853108   11.88604944923460
C         7.65456189202010    8.89955743984686   10.55260126577682
H         8.59622841960326    8.50072992469472   10.90004931718684
C         6.95431475762589    8.23530366860447    9.56102767450624
H         7.36647834653925    7.33339131822181    9.13291726991432
C         5.73790043073635    8.72550167950171    9.09531745318049
C         4.96382973986807    8.00220443668595    8.07243397108855
C         5.00799684997982    6.61099111243272    8.01465271978421
H         5.57721838506827    6.06661248535190    8.75290742097944
C         4.30039079322788    5.91423299303148    7.05317803262775
H         4.33882456177813    4.83536767459521    7.03513689579186
C         3.54403102880777    6.59936821222173    6.11899350739958
H         2.99428394972686    6.06224050219673    5.36116994782651
C         3.48099827597664    7.98101827401344    6.17073088274536
H         2.88022346143238    8.51869297620341    5.45067418991164
C         4.16609457804952    8.69022467694204    7.14447888549434
C         4.06771718238935   10.18989612554844    7.22552518401762
H         3.22351129744382   10.54490341406620    6.62078987457649
C         5.37139457404516   10.86020131188833    6.76287504558199
H         6.21088326521359   10.19096907258272    6.98252638732119
H         5.33117912769219   10.95542686445231    5.67244360360205
C         5.72177835195070   12.20836476448715    7.33381417112944
C         6.96428499915145   12.80005483143789    6.72360165565755
H         6.72499501386944   13.69839585013528    6.15480306440559
H         7.44195330391049   12.09068547336500    6.05320310345724
H         7.67892433820504   13.07914237059114    7.49583118827603
C         5.06231018656189   12.86134756879289    8.28915881730166
C         5.52392211411297   14.21145028742893    8.76720628986091
H         6.45019028182986   14.12154683170297    9.33517815600648
H         4.77569806741896   14.67275805791114    9.40598024375182
H         5.71531303202823   14.87797482139133    7.92846989484631
C         3.82325544478040   12.34651229111163    8.96872167241009
H         2.91863877033863   12.71489213984743    8.46328806813123
H         3.77117238034505   12.70571715657312   10.00278377792885

