51
CSD_code = CAKGAW | q = 1 | S = 0 | Stoichiometry = C19H26IN4Zn(1+) | MND = 5
Zn       -0.93670239409853    6.07394020091727    5.37872540512248
I        -2.88670559658525    6.54331836800936    6.85143131230084
N         0.27891119935036    7.92667351752065    5.53524249177796
N        -1.23614575521847    6.71495148926951    3.24815743423346
N         0.50479702093314    4.90306712413584    6.53965385398141
N        -1.47534550895156    4.18427184785207    4.32757382722950
C         2.00589010299782    6.84950125255578    6.97573128120307
C         1.71365574652406    7.81674281046838    5.83158814657962
C         0.03797025611882    8.91510067113738    4.46142753061933
C        -1.42159598155609    8.97337264008127    4.09674541516417
C        -2.17100794910101   10.10143099233875    4.39478695900260
C        -3.52250436559397   10.15465760571400    4.10265979088518
C        -4.13599731624522    9.06479345918886    3.51599541334148
C        -3.40397200996687    7.92924449130948    3.20871478660709
C        -2.04683907093017    7.87748942494995    3.48666369267546
C        -1.76934636949293    5.63154183780770    2.41854796701305
C        -2.44419166108633    4.58436303692735    3.30778691569408
C        -1.90399468461145    3.29156979607368    5.36678887167397
C        -3.20509744019933    2.82454689768541    5.47158053033824
C        -3.56949897848657    2.00861414592379    6.53020869609685
C        -2.63841133378372    1.64557874878059    7.48427546806915
C        -1.33845314690885    2.10874888457247    7.38110141244413
C        -0.95569391924869    2.93166822738952    6.33224343213634
C         0.45583739776711    3.45112039468909    6.26093859622941
C         1.89608835978370    5.37473045037844    6.59506084884570
H        -0.16232797023584    8.31979183758672    6.37114823483323
H        -0.35496829788962    7.03563988450623    2.85605104040562
H         0.12282573800542    5.01190787360098    7.48349474352359
H        -0.67165925728252    3.76361917158599    3.86032220012811
H         3.02931383107163    7.03083255064715    7.30591223532562
H         1.34791168678614    7.06455821292163    7.82161329594886
H         2.22490259751606    7.47600549499679    4.92618186753024
H         2.11717334801822    8.80469729303965    6.08987961128937
H         0.37478630252134    9.90837992021115    4.78143762025244
H         0.64908227342247    8.63169511089120    3.59585979319174
H        -1.69001105214001   10.94629826503695    4.86418373898391
H        -4.09226168826490   11.03652240523081    4.34489718992655
H        -5.19178865913626    9.08635059505855    3.29932158893999
H        -3.91549801428969    7.09004480090789    2.76651945325774
H        -0.93236002210228    5.16080904150908    1.89402928566125
H        -2.46997406580077    6.00014678113822    1.66400235313685
H        -3.30813555056704    5.02706393782528    3.80904045074340
H        -2.77829642760970    3.73999479025517    2.69437612268728
H        -3.95021214073875    3.09421255438542    4.74195767279365
H        -4.58713952021526    1.66050898370673    6.60297068014485
H        -2.92021347091195    1.01086543676791    8.30841102590797
H        -0.60897067260210    1.82844667808650    8.12633810229445
H         0.89267341800178    3.28127009149970    5.27047781360815
H         1.07526877890331    2.91196405457222    6.98836103628264
H         2.45777745136002    4.77795224778071    7.32583052478909
H         2.35135478277326    5.21168367057565    5.61385223914821

