35
CSD_code = CAKJUT | q = -1 | S = 0 | Stoichiometry = C8H14AgO8S4(1-) | MND = 2
Ag       -0.00007514347962    0.00005137735607    0.00010155180687
S         1.54280359679574    1.84226259529355    1.64232665418068
S         2.36049260443863    1.41108930547288   -0.95930892038376
O         1.74894582920311    1.49696456292701    3.03132722643329
O         0.17239598114408    2.07518519020945    1.23511082532268
O         3.27462702401686    0.69314483840625   -1.81956443006420
O         1.02480282263172    1.62454885717148   -1.47782142969365
C         2.30639670122131    0.67597478096975    0.61064872989328
C         2.34600495682153    3.50231698611572    1.47336016997030
C         2.22808903273158    3.97227330597186    0.04042884076663
C         3.07973676196113    3.11578433609060   -0.87011009900681
H         3.32863058918739    0.54462513427769    0.95293490709672
H         3.37757258163973    3.40313796547534    1.80502828611127
H         1.79956945065869    4.13896569508695    2.16424242029145
H         2.51155096859947    5.02806149127485   -0.04519445649449
H         1.18570495896411    3.86206200904341   -0.26801941107764
H         4.10817512558086    3.02072838332774   -0.52692037268007
H         3.06814991548639    3.46691141910484   -1.89854172248707
C        -2.30650550469515   -0.67594609073072   -0.61052459713572
S        -1.54284167033612   -1.84212352731423   -1.64228150381372
S        -2.36057675079303   -1.41118276969845    0.95938461175901
H        -3.32874090965552   -0.54464057029862   -0.95280842966167
O        -1.74901074549876   -1.49673859672730   -3.03125098318630
O        -0.17242073686860   -2.07499529190835   -1.23507398457288
C        -2.34593575495203   -3.50223927566860   -1.47342940771623
O        -3.27477472736394   -0.69336159004311    1.81966717478653
O        -1.02488388287338   -1.62458501327439    1.47788798732834
C        -3.07969666972314   -3.11592851062682    0.87007194619816
C        -2.22799400552411   -3.97228231525593   -0.04053724261048
H        -3.37750818835364   -3.40309358011959   -1.80508478993017
H        -1.79947031679533   -4.13879712193509   -2.16435242447729
H        -4.10813824889039   -3.02092043287517    0.52689010888648
H        -3.06808014045056   -3.46712298859118    1.89847944475158
H        -2.51138100662398   -5.02809949634275    0.04501513797690
H        -1.18561449820610   -3.86203106216403    0.26791818143233

