55
CSD_code = CAKKIK | q = 0 | S = 0 | Stoichiometry = C26H20N4NiO4 | MND = 6
Ni        2.80674886825448    3.20825018910438    6.06919199797945
O         6.05197292860046    1.12776517294182    6.92349156072170
O         2.04646539765277    2.06079789585240    4.21977389614702
N         4.27827864599136    4.18132606848907    7.18155753042992
N         4.02762871378887    1.82607961379466    6.05303651530704
C         4.35563571690405    5.39248153199937    7.71741237849017
H         3.55602857581555    6.08260286138460    7.48069223696399
C         5.40311322227694    5.77896978446318    8.53875472086131
H         5.42588018838832    6.77643023559312    8.94853303495650
C         6.41078246877267    4.86706446805810    8.81706503478042
H         7.23960430610513    5.13849211271241    9.45417097757730
C         6.33261942869982    3.60568354771880    8.25619624630314
H         7.08115587297774    2.84605796657767    8.42091794348339
C         5.24967803616080    3.29857689846273    7.44162310342573
C         5.15035378411292    1.94789064356503    6.78299900080554
C         3.75317320978748    0.71920291118200    5.26248452274985
C         4.39674040348807   -0.51954253543645    5.36461542715512
H         5.16835263174961   -0.64677782523527    6.10506435105921
C         4.07056839661751   -1.55598465338770    4.51177365807311
H         4.58853689759253   -2.49879528495591    4.60693247220186
C         3.09217588741034   -1.40179287761319    3.54473094627296
H         2.83782498927818   -2.21710582831150    2.88503788491133
C         2.43051802687639   -0.19027836974975    3.43245468081462
H         1.65035069941799   -0.05968572325308    2.69637465043835
C         2.75570436643454    0.85549959172499    4.27605319111362
C         2.15782626518158    2.79404912121360    3.01536714502981
H         1.29252712722460    3.46450994543484    2.99645915881711
H         2.13777373727585    2.13527705746231    2.14079924767191
O        -0.43847307400184    5.28873535940675    6.92349588910285
O         3.56704367917076    4.35570956937296    4.21978358617243
N         1.33521650313019    2.23517126235661    7.18155073538550
N         1.58586869240322    4.59042049726101    6.05303510533533
C         1.25785785339073    1.02401472837490    7.71740305682595
H         2.05746048816049    0.33389046868269    7.48067578569269
C         0.21038641886276    0.63753009199722    8.53875481915089
H         0.18761958561042   -0.35993027375685    8.94853320318228
C        -0.79727549945429    1.54943955535016    8.81707648539015
H        -1.62609298275888    1.27801440073069    9.45418924970530
C        -0.71911113538134    2.81082155031104    8.25621001608020
H        -1.46764434007031    3.57044910423412    8.42093716428469
C         0.36382402954861    3.11792463601988    7.44162748179403
C         0.46314386887048    4.46860848541079    6.78299784711749
C         1.86032443564590    5.69729802135252    5.26248440444644
C         1.21674965594769    6.93604009524420    5.36460894960828
H         0.44513225761052    7.06327240839374    6.10505300997849
C         1.54292078597929    7.97248254701019    4.51176719786535
H         1.02494704155623    8.91529066403023    4.60692180013917
C         2.52131969252743    7.81829441633565    3.54473035191444
H         2.77567063172393    8.63360777961568    2.88503782218470
C         3.18298440133562    6.60678317631972    3.43245988332898
H         3.96315635602492    6.47619346435130    2.69638425886117
C         2.85779901103661    5.56100480275935    4.27605833147423
C         3.45569686354755    3.62245897452499    3.01537520609510
H         4.32099640704627    2.95199845519488    2.99647719144979
H         3.47575957970018    4.28123123932850    2.14080765289593

