32
CSD_code = CAKQOU | q = 1 | S = 0 | Stoichiometry = C11H16N3NiS(1+) | MND = 4
Ni        0.80648979688255    1.75774716244218    2.13346925623590
S         0.53032008533038    3.00223972723951    0.46421133587609
N        -0.72228540015364    0.73232873031901    1.88630770506374
N         1.17322907063801    0.67862481206051    3.79439929334503
N         2.60795733890679    2.55325862684132    2.53675561913726
C        -0.89754501192767    2.66485659493779   -0.42930385250772
C        -1.81874767923693    1.64257469588667   -0.10491058219288
C        -2.95393103606067    1.47772111381988   -0.93103183218310
C        -3.16974557158910    2.28125872029246   -2.01836842274585
C        -2.25018622865630    3.28676191634607   -2.32917807165016
C        -1.13435671673930    3.47167475989583   -1.54996235861276
C        -1.66879014884088    0.76575142734419    0.99979490306511
C        -0.86306710881461   -0.27450388381147    2.95278456868595
C         0.51075177655594   -0.60342357071411    3.53929842705887
C         2.61968087341324    0.64985156124099    4.04448701267964
C         3.12341482821909    2.08066444258315    3.83927043629305
H        -3.66018448670359    0.69863711789565   -0.68641794938193
H        -4.04326749812938    2.14106856229713   -2.63440660159710
H        -2.41592149687600    3.92174509719402   -3.18537504914406
H        -0.42077503184053    4.24582395220121   -1.78568632889928
H        -2.46718115087014    0.02949729322147    1.09851748140949
H        -1.50862380589088    0.14088892879829    3.73719835405583
H        -1.33710957625483   -1.18088152949390    2.56330257576576
H         0.41005802132004   -1.21614574395937    4.44286335572509
H         1.10222520295245   -1.15720055349348    2.80370451204366
H         0.71589021683791    1.12834783610578    4.59204150497612
H         3.08312930815945   -0.01451262300257    3.30908345939307
H         2.86378371324849    0.28340079813058    5.04777270707950
H         4.21638802426912    2.11872720700456    3.88283012084897
H         2.72263067325304    2.72669695211052    4.62494703421457
H         3.20058380748339    2.19352705510770    1.78131260071491
H         2.65998521111489    3.57149281315871    2.47718878524695

