64
CSD_code = CAKVIU | q = 0 | S = 0 | Stoichiometry = C27H24N4O6S2W | MND = 6
W        -2.63990108009072   11.36253804078814    6.50874199620185
S        -3.87826034256904   14.45832266817625    5.04521300469476
N        -1.80309649908852   12.78948067877428    5.02580437114976
N        -0.67423485524867   12.53394273824467    4.34342650029405
O        -5.42711977481077   11.36306613271806    5.07840299090056
O        -3.80566572611001    9.23987832410452    8.46659597009065
O        -0.18087045391921   11.36164625394291    8.44246783222358
O         3.61088127330095   13.11935960005392   -0.48749365291515
C        -4.37148583074235   11.36274293521086    5.51548737278617
C        -3.37396519560358   10.00002393711520    7.72358588097562
C        -1.01970801039348   11.36211010930237    7.65567025974787
C        -2.39248143486398   13.80835600581104    4.41113070978810
C        -1.64460567093324   14.19199179717496    3.28208714075204
H        -1.85156911546845   14.97906330645930    2.58817913209371
C        -0.55406220110148   13.34675021182934    3.25957430122589
C         0.09011165040655   11.36242740294236    4.66311136646634
H         1.01198548768587   11.36236130301755    4.07764066625846
H         0.29858871738180   11.36233315403922    5.74357582958425
C        -4.07173717190311   15.92076676415403    3.97304172245070
H        -4.94782755834406   16.44306493773394    4.34275382072222
H        -4.23446805245629   15.61029864556428    2.94573618702266
H        -3.19722431226335   16.55787593157913    4.05827472194571
C         0.55573578351429   13.26844376029389    2.31655679773059
C         1.87661377087623   13.31415782891672    2.74869870041518
H         2.09460434524113   13.43103243068660    3.80106042657114
C         2.92398645740488   13.26500085049368    1.84656636960074
H         3.93426749465784   13.32343322129482    2.21967572616952
C         2.66534515679232   13.15911152341032    0.48369194972424
C         1.33915191632737   13.09830804654613    0.04766222534214
H         1.15427825768657   13.01237974556865   -1.01077687494153
C         0.30244920184916   13.16043608514198    0.94894628523763
H        -0.71869511281138   13.12121976320844    0.60150287382554
C         4.95750204781327   13.31319412669344   -0.13034261225518
H         5.51943509729751   13.26440522110500   -1.06132944624940
H         5.31648030939969   12.53195864915929    0.54707388495051
H         5.11059693909002   14.29178840436498    0.33617391068062
N        -0.67446612635840   10.19110879211718    4.34325313675342
N        -1.80345059950284    9.93573285973162    5.02548017810209
C        -3.37354869185165   12.72501086644062    7.72392132289202
O        -3.80553116757375   13.48499529478311    8.46690740184157
C        -2.39296095491757    8.91703593726223    4.41064249844267
S        -3.87901536044131    8.26734484269383    5.04437272231268
C        -4.07149805356574    6.80393491135409    3.97332745727730
H        -4.94722675449459    6.28131460843654    4.34343917711796
H        -4.23442918837219    7.11345721026002    2.94576613647580
H        -3.19653871169035    6.16751073261401    4.05908381311559
C        -1.64499829885966    8.53331082989427    3.28168311927945
H        -1.85203348030767    7.74633567787058    2.58768641925247
C        -0.55428222989158    9.37832659931996    3.25938507992025
C         0.55571477233485    9.45655158961923    2.31658245374884
C         1.87648219085991    9.41027343267385    2.74899854238901
H         2.09419681488031    9.29294164614544    3.80136663154564
C         2.92406691005835    9.45950106664250    1.84711726225750
H         3.93424913889260    9.40062772575543    2.22042341220378
C         2.66574827579285    9.56605823347568    0.48423393459620
O         3.61152036507673    9.60604165900802   -0.48671854199870
C         4.95801729517225    9.41176178804467   -0.12934242188323
H         5.52018179750596    9.46089037378778   -1.06017222881662
H         5.31699611609708   10.19258930988976    0.54855076637095
H         5.11080695401216    8.43291188865486    0.33673390360902
C         1.33966939346106    9.62738684501991    0.04793409445442
H         1.15505444224779    9.71380319169223   -1.01050951241575
C         0.30274948314960    9.56517288501937    0.94896542525313
H        -0.71830983985850    9.60479866601751    0.60131947455681

