79
CSD_code = CAKVOC | q = 0 | S = 0 | Stoichiometry = C38H34As2Cl2O2Pd | MND = 4
Pd        4.31722084316068   -2.93282043096930    6.02454938819374
As        4.00581715849065   -0.62333231818679    5.93399103118035
Cl        3.26189942547534   -3.13215779578087    4.00163110017757
O         1.83961275395799   -2.24843607790818    6.93579996706632
C         2.11120885641257   -0.32990782304745    5.63208567210968
C         1.24299397885765   -1.29712449606452    6.16023421261205
C        -0.11762314307469   -1.22911693597915    5.89356977684887
H        -0.79721345571675   -1.97389441406783    6.27851476558364
C        -0.61081749980955   -0.19056608264589    5.11983501549930
H        -1.67048959513886   -0.14307816737208    4.91645681948444
C         0.23607538086073    0.77434114437107    4.60694676137768
H        -0.15756283869968    1.57775181547992    4.00268701969704
C         1.59716553940333    0.69613801733744    4.85713429255866
H         2.27534058296189    1.43110834504384    4.43785755840369
C         1.11064400302155   -3.41427795581167    7.25830007422269
H         0.30511390960298   -3.19397253014831    7.96773259233116
H         1.82819188797180   -4.09835972384104    7.72373474687118
H         0.69679987600612   -3.87735123921701    6.35528599262578
C         4.77828265757572    0.51163346335723    4.54123579186723
C         4.97992519290330   -0.05137633298854    3.28407875895271
H         4.70428663582675   -1.08997850018996    3.12040018399479
C         5.50368279072569    0.70802783000224    2.25221336031137
H         5.65188918031229    0.26519804174312    1.27792979965773
C         5.83667384887967    2.03505886761828    2.46952212835160
H         6.24762447720029    2.62864398132456    1.66606452307312
C         5.64090982005384    2.60239873695904    3.71806389484080
H         5.89749294402744    3.63838180302391    3.88746792352354
C         5.11362719990407    1.84577901315514    4.75109427413209
H         4.95683204793023    2.28838162233223    5.72994610607152
C         4.35043443919396    0.44141202399910    7.52440816100293
C         5.67698147158958    0.65929716392486    7.88688737939905
H         6.46564928248963    0.26830827968259    7.24725208374343
C         5.98258867639522    1.35056216248729    9.04359737797257
H         7.01388075201596    1.51423690589460    9.32140757901411
C         4.96225951994721    1.82388888106964    9.85387744302944
H         5.19914216437156    2.35910859735778   10.76182623967199
C         3.64099850669848    1.60304366038447    9.50542832129478
H         2.84655186656749    1.96643523980955   10.14182533527925
C         3.33420942254363    0.91078780353093    8.34556923168068
H         2.29952440212416    0.72825518881801    8.07158928454058
As        4.62986423595149   -5.24215273510091    6.11608207177757
Cl        5.37316830491609   -2.73528738433757    8.04710089469048
O         6.79143609328590   -3.61746838241809    5.10609902865539
C         6.52528203165355   -5.53287384110787    6.41520110343173
C         7.39121252203171   -4.56598366489311    5.88266590843005
C         8.75247535386060   -4.63166303755101    6.14641833751065
H         9.43031774902864   -3.88705434475316    5.75807880798125
C         9.24857098544314   -5.66762042077471    6.92181863217120
H        10.30874579284584   -5.71336201065879    7.12295462383767
C         8.40392953210519   -6.63209463740929    7.43917321627002
H         8.79983211340610   -7.43342213508707    8.04471976655696
C         7.04217215943168   -6.55616843034943    7.19182425199818
H         6.36581827506891   -7.29074062138062    7.61468938821583
C         7.51906873176959   -2.45323853631006    4.77512772345156
H         8.32284667283228   -2.67727067768502    4.06487687865863
H         6.80001845976379   -1.77221874561293    4.30765507940790
H         7.93510325242442   -1.98475074095825    5.67435910711785
C         3.86000350835643   -6.37716745438328    7.51006027514961
C         3.64940333758611   -5.81190112978416    8.76465549253209
H         3.91644097215965   -4.77072719426741    8.92622862886429
C         3.12808642640420   -6.57233395478011    9.79703997083947
H         2.97297154201722   -6.12776029587278   10.76944925955953
C         2.80652195969628   -7.90263320072495    9.58267635929994
H         2.39754553501010   -8.49703544578467   10.38653796254019
C         3.01106500666649   -8.47223067359627    8.33653316055757
H         2.76309914969155   -9.51066254199350    8.16935847247743
C         3.53594591408033   -7.71458186277932    7.30309305696274
H         3.69958097818611   -8.15871299209457    6.32602990812223
C         4.28439193421872   -6.30820761099070    4.52673047375585
C         2.95759328200134   -6.53165298051288    4.16861245073921
H         2.16942794370874   -6.14440785960883    4.81116629370260
C         2.65110084681198   -7.22374184527952    3.01263571140088
H         1.61960948308190   -7.39173788584703    2.73818357407953
C         3.67074740696474   -7.69227632430124    2.19871902855868
H         3.43313856855489   -8.22802934741868    1.29127751267914
C         4.99220305572927   -7.46595962690265    2.54289777799841
H         5.78607034395166   -7.82570279005424    1.90371805026534
C         5.29988091052697   -6.77289020794933    3.70202567108448
H         6.33468466578101   -6.58620419319662    3.97269412039553

