53
CSD_code = CALCAV | q = 0 | S = 0 | Stoichiometry = C20H22CdN4O6 | MND = 6
C         8.36112944004807    4.74420409410679    5.13257216663965
C         7.09176397593372    4.25746485887043    4.43247604791372
C         5.14423006667358    4.25323328195233    3.51799188617946
C         3.89171351655536    4.57314958793284    3.00277535074554
H         3.53479215097654    5.59162675442749    3.04019770874954
C         3.15981003440966    3.54483492455548    2.44861410570794
H         2.18354867437587    3.74896441302234    2.03590011219875
C         3.64870036253740    2.23491861028884    2.40247833883317
H         3.03692462849569    1.46518345131061    1.95685749590611
C         4.88885692701372    1.90036601271015    2.90763131092522
H         5.26214959753306    0.88885087178858    2.86753446433821
C         5.63536487534571    2.92680239201778    3.46876747393709
C         4.63065618159650    9.27928871368544    4.50082965878555
C         5.89437145691775    9.76854912132707    5.20956526584204
C         7.33643789006815   11.09958410582373    6.19413905664253
C         8.07313489228820   12.12553784160671    6.76893559275122
H         7.69379438962790   13.13455862596811    6.81477851292304
C         9.31162811364859   11.79384582631840    7.28004447681478
H         9.91587460334897   12.56331330911432    7.73627628737393
C         9.80823945195837   10.48711664565210    7.22678283629902
H        10.78257329133051   10.28500197168338    7.64500216959412
C         9.08627368987158    9.45940229845155    6.65865635238301
H         9.44928556343134    8.44331047505325    6.61543318198474
C         7.83578070584521    9.77653850467019    6.13690382446812
C         8.48937773699358    8.65101919515762    2.50392276544461
H         9.38596965737873    8.52700026792208    1.87917768100961
H         8.72208365987215    9.35622774972212    3.31463043631575
C         7.33727285460410    9.17736368425506    1.66295118684505
H         6.43534525265603    9.23629789992105    2.27022640942551
H         7.14694226678447    8.50097708203814    0.83364174276391
H         7.57383580857503   10.16339762560781    1.27305333334951
C         4.55107062475182    5.39050722950298    7.16070164104102
H         3.66149809804463    5.50724932593526    7.79678155828241
H         4.31939452206897    4.67000518230730    6.36324450281441
C         5.72460464932610    4.89695939313943    7.99182321716595
H         5.51065974106861    3.91364073839563    8.40111327861521
H         5.91620693708900    5.58994221069202    8.80703318180163
H         6.61805141954373    4.84296691425287    7.37181623144385
Cd        6.49934304738612    7.01693589574047    4.81295936253516
N         6.08436314075634    5.04333688277121    4.12689623531620
N         6.87208241137897    2.97820975462758    4.05981897587104
H         7.53419646013543    2.23175137539546    4.20423503019822
N         6.90457702307687    8.98617010640565    5.51490637578481
N         6.10397572320567   11.04586256638045    5.59448566112248
H         5.43794816915187   11.78934896661645    5.45271801288105
O         8.36231217685974    5.97574058333211    5.41064699781904
O         9.23101498449835    3.91362890758907    5.33975155485032
O         4.63772336439923    8.05002853640456    4.21354693405482
O         3.75599037664866   10.10600818448165    4.29805317569463
O         8.11527325874582    7.38703991897235    3.03768452880158
H         8.81162885681844    7.07950422545420    3.64020239484115
O         4.89482032201839    6.65323340200694    6.60398069895496
H         4.18430297615404    6.94089950255318    6.00875321703471

