70
CSD_code = CALGIF | q = 0 | S = 0 | Stoichiometry = C24H40O5Os | MND = 5
Os        6.69445243774549    5.23499148314129    9.19446165573861
O         5.26632712495328    4.53244267645919    8.82729113277794
O         6.40598137625763    7.07483924272664    9.31389845499001
O         6.90314862328470    5.43454203165948   11.05974612229477
O         8.07960247221139    3.96839755885657    9.38798325418273
O         7.58734559035753    5.54878025755053    7.58580429209434
C         5.87198537798467    7.49227534639063   10.54511341980845
C         4.38214649884395    7.09260319903986   10.62540156935582
H         4.30237281502571    6.00063830352541   10.58052758642217
H         3.96941904675533    7.44545228481436   11.57184899715538
C         3.59915618423616    7.71437287284243    9.47263876707385
H         2.55784847610917    7.39106880835421    9.52380329787748
H         4.02276574619990    7.36060223789260    8.53073203436431
C         3.68977267840410    9.23392634894614    9.54485110881638
H         3.13795788773417    9.68410285709721    8.71765323846901
H         3.24149399284148    9.58311811806417   10.47896687773383
C         5.15067701049994    9.66170176686269    9.48548185939816
H         5.57816923875116    9.34086294025717    8.53474660998904
H         5.23104445643072   10.74900434196738    9.55247899674252
C         5.96663136707413    9.02717293129220   10.61131673678091
H         5.59686590202829    9.35942170094919   11.58343571433316
H         7.00454192099085    9.33780637542999   10.50102231333450
C         6.72762434033566    6.71706478521944   11.60168932446237
C         8.12181701716352    7.36231088459206   11.77367592718497
H         8.59025586290707    7.43468804919947   10.78675618183240
H         8.00913018966177    8.36410008211654   12.19071237618386
C         8.98917705875019    6.52605600174964   12.70844072041032
H         9.98385988157267    6.97135165258060   12.78349730159389
H         9.08765586155896    5.52240682303140   12.29302977520714
C         8.33595851691921    6.43666433911836   14.08183859019805
H         8.95706948706151    5.84285688312759   14.75521667158411
H         8.23660117990068    7.43808118516721   14.50913441965926
C         6.96101488893106    5.79527110606995   13.94350243533987
H         6.47212863210276    5.73040816963054   14.91807318831415
H         7.07470022601376    4.78597906472341   13.54595699688420
C         6.06967608436735    6.58642350931349   12.98781733736698
H         5.88960813282845    7.58941817410784   13.38071785237811
H         5.11911376712556    6.06454196608468   12.89007172637953
C         9.00277503464666    3.84854441221941    8.33752889242470
C        10.24855978921093    4.69255635857142    8.69117003171402
H        10.97825267260819    4.61771011907269    7.88359228234883
H         9.93637669581360    5.73659527040673    8.79735688380159
C        10.88351035174301    4.19753586688876    9.98619237956605
H        10.14632760128560    4.26328637065578   10.78727597232462
H        11.73502271510989    4.83145017688051   10.24382645936238
C        11.32249476602774    2.74732102814039    9.82768030855729
H        12.06559939886052    2.67208354042222    9.02927013351620
H        11.78274266214742    2.39100378520546   10.75128415823121
C        10.11035854403403    1.88937726978341    9.48742839527853
H         9.38963283028827    1.94717856600013   10.30406497464187
H        10.40704757483025    0.84583560440973    9.36097281132940
C         9.42461521493716    2.37323299881732    8.21090319056644
H         8.54333347302100    1.75782794803445    8.03731164095282
H        10.10117240480739    2.27930262387129    7.35873465299390
C         8.26726103769906    4.42666162745179    7.08282700892645
C         7.24949417902973    3.41426655515344    6.51268214511785
H         7.78978809702286    2.56170573910717    6.09801854535566
H         6.59593896731792    3.06935895383180    7.32175138263577
C         7.31529105556429    4.52154418984424    4.27610662861472
H         6.72195560092575    4.99404275702765    3.49118564482985
H         7.82358687131899    3.65707137893645    3.84044398596185
C         6.41162154353195    4.06155096883479    5.41379640419868
H         5.88071833323306    4.91661267687849    5.83671077472181
H         5.67325738356579    3.34507222357903    5.04917952658091
C         8.34641740879089    5.50810500920761    4.80929494620314
H         9.01154624427371    5.83329005036932    4.00619122492515
H         7.83088233029792    6.38285020520302    5.20747826871635
C         9.17918479189399    4.89517973977767    5.93482290824867
H         9.87341929697595    5.65074187639458    6.29956184846274
H         9.74671777726714    4.03855774907092    5.56572072417791

