59
CSD_code = CALKAC | q = 0 | S = 0 | Stoichiometry = C21H35O2Rh | MND = 6
Rh        4.03519373485550   10.78252214365300    5.77428006197184
C         2.52500085435966    9.71896338201860    6.87162483035851
H         1.63317128318693    9.60322017763919    6.25527534017329
C         2.97829938275619    8.42122075687280    7.48421437526501
H         3.86598978137537    8.58036406880430    8.09088416422794
H         3.23395671149353    7.70407708933716    6.69893183017730
C         1.85688258676895    7.82292509430282    8.34585175084308
H         1.07153499448313    7.43501179723316    7.69158817174107
H         2.26150844409394    6.97859298413676    8.90914100071021
C         1.21263255657303    8.81585139900919    9.31560109279844
H         0.69719494177678    9.59015764350017    8.74675588555553
H         0.45036099804775    8.26988393538685    9.87745103770212
C         2.18618104220128    9.47746091400155   10.30173059687622
H         3.11421217074431    8.90558219674209   10.34509255739824
H         1.74604546992101    9.44551064743451   11.30180487901603
C         2.50854533827017   10.94285570480828    9.99719999603807
H         1.57673002922381   11.49313965025352    9.84468263014698
H         2.99873252774916   11.36861192381921   10.87697529977863
C         3.43870633255732   11.15979815683016    8.79428803786791
H         3.81022949196666   12.18832424427811    8.82997385328118
H         4.29337588141736   10.49382908129191    8.88901667819550
C         2.72302874848890   10.95336830994401    7.48260239774144
H         1.99367144279172   11.74075864951767    7.28870871566737
C         2.84323254818933   10.65273687693758    3.98910207335438
H         2.12063714021629    9.84569708542127    4.12089909591063
C         3.59583309453819   10.53227579011462    2.69166873846132
H         4.13148249797074    9.57993123276423    2.64946892792501
H         4.32487883194746   11.33188037540887    2.59496316319814
C         2.60943701358553   10.59124955638312    1.51614223047032
H         3.18170409527843   10.64199730630661    0.58662254559013
H         2.02345521314268    9.66863506697757    1.49158527310786
C         1.63529121465387   11.76976157370771    1.57500519617043
H         0.96626662455843   11.64068929878504    2.42616957453482
H         1.01915337182965   11.72512158537805    0.67326631790128
C         2.30201272836873   13.15051238774519    1.66223294306897
H         3.35067140858932   13.07501397539487    1.37138156542052
H         1.82046356142515   13.81811892284361    0.94301672969333
C         2.20394009407896   13.81989609909324    3.03557648200458
H         1.16286620791070   13.80574730816848    3.36805136117942
H         2.49554529909419   14.86744314905688    2.92046793635268
C         3.09533743937107   13.20178472146952    4.12245549811953
H         4.11045048158286   13.10748020946825    3.74077451375973
H         3.12238947465914   13.89182650856325    4.97147514605475
C         2.57930329056870   11.87041564564968    4.60871977840491
H         1.64094463804436   11.95848044633054    5.15615101095774
O         5.58386243527776   11.44067268036892    4.57632131170339
C         7.72399963085822   11.87852146021434    3.67168266258336
H         7.12437790100077   12.35386344616006    2.89963830694192
H         8.31765532003522   11.08345882305767    3.22573639142264
H         8.40255902203338   12.61108232964305    4.10271506254333
C         6.82357171034985   11.30687716089911    4.74998274227836
C         7.44905308290689   10.68724433281799    5.83239590021153
H         8.52709613917446   10.65375198267653    5.84752140965399
C         6.75550986962203   10.11006283991853    6.89661903814504
C         7.58568867413342    9.49498405525437    8.00681237055300
H         6.94218139749873    8.95509794619081    8.69695850524107
H         8.10749395504443   10.28112165302274    8.54978392097134
H         8.32650512853765    8.81516212982921    7.59344582345487
O         5.50526471882130   10.05457408716195    7.03411526912058

