75
CSD_code = CALLEJ | q = 0 | S = 0 | Stoichiometry = C34H32Cl2N2O3PRe | MND = 6
Re        3.77037690879679   27.69992595880655    3.43701796806115
C         5.44460298792905   30.16576271535420    3.63687713999790
C         4.82614510522379   30.69647896053748    4.80532430887435
C         5.25996530821851   31.94402371077272    5.27981947787058
H         4.79524936431092   32.34716910716612    6.16825551286644
C         6.24167033752588   32.65333248555235    4.64532044811308
H         6.57054292914588   33.61349311035569    5.00727002560784
C         6.85070574994168   32.13301273045846    3.48856754720740
C         6.45770986120590   30.90395530873948    2.99900937577916
H         6.90114641226728   30.46931408362384    2.11733938346640
C         2.26950479391112   28.36560618113977    6.15226668804253
H         1.37853992792833   28.04070270827318    5.60908658345910
H         1.99481563377262   29.14428869180292    6.87321959868278
C         2.85289692581220   27.15843883516666    6.92993109578013
H         2.16892095728385   26.92342529465231    7.75097866165050
H         2.91558582678510   26.29550043805476    6.25765433017406
C         8.45810152927828   32.46641937334511    1.77080472964700
H         8.99570564768428   31.52947666166706    1.94723049783291
H         9.16910005571865   33.24880084936640    1.51005470511867
H         7.74970928682950   32.32734722426081    0.94815419535537
C         1.42680449196165   25.73727154843391    3.89360090501101
C         0.15975952624249   26.20787024731708    3.49135178713277
H         0.10213581148551   27.18730283579919    3.03973676181074
C        -0.95845915293006   25.42730492678257    3.68366321107304
H        -1.92546674321493   25.79498884143963    3.37424060081417
C        -0.84911010027260   24.17428738082901    4.27156906485856
H        -1.72987939551431   23.56755413575599    4.41719999469499
C         0.39200744262994   23.70316563199947    4.67514895022435
H         0.47429719016641   22.73049701385090    5.13674526791229
C         1.52385259713934   24.46877334780406    4.49471003890806
H         2.49307347696135   24.11611611248818    4.81315988178826
C         5.93567260675226   27.78216853538304    0.71179313259373
C         7.24765875392321   27.65401234226637    1.16136804485452
H         7.49328001488477   26.89451891037885    1.89163078604064
C         8.22570249428136   28.50459971763138    0.67816813544551
H         9.24548770013365   28.39977754584127    1.01963037859401
C         7.89723957116982   29.49370345625724   -0.23692955072742
H         8.66526237167169   30.15143474379646   -0.61828265683936
C         6.58197137054130   29.65307487883195   -0.64650936202411
H         6.32184862240011   30.44309539857842   -1.33594504168081
C         5.59811925635627   28.80528774531505   -0.17007057080109
H         4.56687286578059   28.93516697092398   -0.46856095397596
C         3.49964245105577   26.43430470712839   -0.00682807814791
C         3.80281711199934   29.99933593283318    5.51447172168270
H         3.47426810073910   30.50186232352110    6.42796769352822
C         2.14142214291822   26.29410972610764    0.24789143160760
H         1.77988409702476   26.42108944872373    1.25727492954755
C         1.26752324821671   26.02582214596510   -0.79042024297439
H         0.21130388510233   25.92797261657481   -0.58990694854309
C         1.74621547190319   25.88992964224754   -2.08252512689242
H         1.06399136977440   25.68628193269952   -2.89453645964511
C         3.10260290910653   26.01830966443540   -2.33692476354857
H         3.47669986806379   25.91174951160707   -3.34469257613442
C         3.98118123957403   26.28544993773894   -1.30380785189478
H         5.03796414494971   26.38815957569954   -1.50750900684850
C         5.39629529893965   25.05760708799696    1.50135151564150
C         4.87304413878652   24.17746056309148    2.44197688479786
H         4.09226260354478   24.52782449286929    3.10331158650543
C         5.36828415018526   22.89038868528029    2.53932873213164
H         4.96866944833812   22.21321235269757    3.27911371766723
C         6.38360325767129   22.47453004640165    1.69367442900565
H         6.77806123182365   21.47241592276555    1.77326497447370
C         6.89816090178936   23.34530097019571    0.74693044764178
H         7.68896965311852   23.02048697500480    0.08648923422555
C         6.40579199929572   24.63371359641674    0.64395801573992
H         6.81535798193113   25.30827152312690   -0.09495921524333
Cl        2.36302802220563   29.10478063313182    2.09612701709881
Cl        5.41727643120076   26.56038780073888    4.77987933655140
N         3.23468734010674   28.88466435774538    5.21250724315829
N         2.50383950477425   26.50970509952102    3.69700357000647
O         5.08841340339399   29.01884028646099    3.17898555854409
O         4.09969918796010   27.44346885533174    7.49082629683480
H         4.77286346230383   27.26952678954728    6.80739692087576
O         7.80950866443394   32.91443055705621    2.93635782737983
P         4.64214095563683   26.70985954253302    1.38222010593665

