61
CSD_code = CALQOY | q = 0 | S = 0 | Stoichiometry = C32H23N5Ni | MND = 4
C         8.17720015571102    7.28227115381794    5.19207827842366
C         7.64536645007980    6.16303809887869    4.48311141167708
C         8.00953931104781    4.78738229974302    4.40464662245265
H         8.84814856384082    4.32517831213704    4.88994185642459
C         7.06423058236840    4.13960005808703    3.62538316001067
H         7.04717194440735    3.09523979630803    3.37792331420105
C         6.11763550904131    5.10878606299123    3.23210526572599
C         4.83814659807499    5.25467575026089    2.51362788426458
C         3.86587866171835    4.50671849980637    1.80991437738246
H         3.91156345362607    3.45854074002940    1.58334292987982
C         2.84178333270771    5.37718380787202    1.48170507316938
H         1.93500840190557    5.12294788142871    0.96608602641668
C         3.18715498932253    6.66873726680440    1.98239828985761
C         2.51663488561603    7.92102903386202    2.01234200499466
C         3.04683152276135    9.03995152614639    2.70902484962894
C         2.66072516000037   10.41043240453978    2.81369248328051
H         1.80227274532249   10.86020055433884    2.35163773462790
C         3.60575732737772   11.05991239294276    3.58772740650314
H         3.61109059819901   12.10011796472305    3.85234266119752
C         4.57458078961003   10.09767566252033    3.95586031931761
C         5.85436687552138    9.95516692557943    4.67439842184743
C         6.82440232469351   10.70417027931076    5.37303549367402
H         6.78169843454944   11.75368134394317    5.59418634765994
C         7.84969519802686    9.83274602963131    5.70454838479100
H         8.75876996258505   10.09494135601932    6.21175367676992
C         7.50260075192625    8.54021322730576    5.21452714922161
C         9.42775422181588    7.13797121005690    5.90846135931715
C        10.51070374570602    6.44891954401659    5.35070123282653
H        10.42236602643210    6.05779701193764    4.34841628814923
C        11.70258562784344    6.32180798007357    6.02151238866926
H        12.52000131797283    5.82120097121630    5.52890687106206
C        11.87366285558069    6.85582416150949    7.31128562955460
C        10.77981279432262    7.53689954219594    7.87487062516003
H        10.84653231559972    7.93722106146768    8.87327706823949
C         9.60049408655282    7.68276804356388    7.18609917598930
H         8.76811862057343    8.18043926961138    7.66023006725618
C        14.08690846313636    5.84407666479620    7.49882714223361
H        13.66732958076489    4.88246513690829    7.19637589535539
H        14.80828098207513    5.66016904424262    8.29223498516385
H        14.61666689611219    6.28052157422422    6.64428772716871
C        13.29320522207493    7.45182666550680    9.20501816517086
H        13.00568040747335    8.49855774126961    9.08712516252475
H        14.35483701090308    7.42013066623916    9.43979434243541
H        12.73976524705866    7.02901815402878   10.05103648104807
N        13.04961762884066    6.71789337687550    7.98790432434427
C         1.24193598225737    8.06106224757138    1.30837351073231
C         0.14447381313563    8.64714241951403    1.93914654075784
H         0.23743804601687    8.97478095710931    2.96381768858934
C        -1.06017132470396    8.77244344612447    1.27392066428797
H        -1.90604206361236    9.21989907845116    1.77522067418625
C        -1.18594856849987    8.32551236460074   -0.03146793200680
H        -2.12727795957134    8.42816029333167   -0.55086269849420
C        -0.10007245621000    7.74695021525416   -0.66839633488325
H        -0.19273517940788    7.40202109294379   -1.68792580923111
C         1.10394191116296    7.60986789054336   -0.00433856640056
H         1.95721502138071    7.17878581851067   -0.50638503998112
N         6.50226830803304    6.28820335344565    3.75325706561344
N         4.40200983559985    6.52264545181009    2.58432200915511
N         4.20283456178782    8.92281159816667    3.42268032914531
N         6.29193219778070    8.68457673087419    4.60790834304389
Ni        5.35102029397132    7.60499079298055    3.59082320041460

