62
CSD_code = CALQUE | q = 0 | S = 0 | Stoichiometry = C33H22N6Ni | MND = 4
C         4.32611154117773    7.71381521520243    7.26834249786435
C         3.69183824543717    8.41110635297406    6.19483912045382
C         2.91687528990287    7.99646553526058    5.07293238865304
H         2.66617858921067    6.98567855897959    4.81312710927744
C         2.50973819692388    9.13287532439432    4.39148024868384
H         1.91072507346963    9.16249753112446    3.50137568242150
C         3.02015953696389   10.24276967510644    5.09603895717105
C         3.02705000847902   11.71788589837280    5.09402932692725
C         2.58864024389240   12.83527770259908    4.34402463935751
H         2.04360551370795   12.80721081532451    3.41998168340396
C         2.99968678602672   13.96796072300774    5.02256040760691
H         2.84126963857723   14.98328057146708    4.71134533211004
C         3.68494345724989   13.54685085119457    6.20348272172539
C         4.32637718018492   14.23263269160120    7.26834475775135
C         4.32605041566883    6.26571389610928    7.26837684482485
C         4.58324217827961    5.53770108797924    6.10056525989225
H         4.83223149091540    6.07021109058207    5.19523427367156
C         4.59869188448553    4.16450144543095    6.09946756270975
H         4.84826528769150    3.65299169236364    5.18434358801399
C         4.32619703648949    3.43083608319144    7.26851606077303
C         4.39471091300455    1.32756284732055    6.03307521990418
H         3.69884470603738    1.73896057948948    5.29930226520298
H         4.11514708593060    0.29253160168749    6.21637796959035
H         5.40402610129727    1.34240105102996    5.60689945450855
C         4.32629525920269   15.69754503403932    7.26843568634156
C         5.51885154078603   16.40474125600551    7.43091283589605
H         6.44556118377862   15.86091419242662    7.53463566655381
C         5.52442824827488   17.78356551872008    7.42689788526044
H         6.44874328116863   18.33000654967656    7.54432949672715
C         4.32608410058386   18.48195617243609    7.26864146190113
C         4.32598352240466   19.89508445597568    7.26861086639886
N         3.70797104612790    9.77203642101620    6.15260266378299
N         3.67431306327561   12.18350904096218    6.17315713170433
N         4.32635151108293    2.06811077763946    7.26860286095245
N         4.32605895464410   21.04174527473982    7.26889965759238
Ni        4.32640061552772   10.97690548253569    7.26824876431577
C         4.96050587990201    8.41105378899501    8.34179492365348
C         5.73538336028684    7.99634395462106    9.46374309259870
H         5.98591761981931    6.98553056693897    9.72360143376614
C         6.14252440071917    9.13270840818860   10.14525707148938
H         6.74140415247370    9.16227279879603   11.03545265694334
C         5.63238094124504   10.24265775542825    9.44057627852619
C         5.62564617103593   11.71777624350028    9.44258416031609
C         6.06396582571096   12.83511832147397   10.19269213180752
H         6.60886888119260   12.80702177703053   11.11681221008691
C         5.65308300260358   13.96784645197658    9.51411271028993
H         5.81151023069604   14.98314324793902    9.82539624368655
C         4.96787699552134   13.54679706667196    8.33315358168819
C         4.06884218130066    5.53778615421448    8.43623714728979
H         3.81977811024365    6.07036724408261    9.34150504500248
C         4.05353147701252    4.16458874327174    8.43746978442161
H         3.80395475370589    3.65314509054667    9.35263071512534
C         4.25798462177776    1.32767104818473    8.50418680898710
H         4.95356174325445    1.73940323581000    9.23804389557976
H         4.53795993133010    0.29272334502385    8.32102720131454
H         3.24857052257163    1.34221400015399    8.93015518229713
C         3.13363356352594   16.40458382145538    7.10607840392390
H         2.20700520640599   15.86063338292131    7.00228147270317
C         3.12784793041153   17.78340406768483    7.11030107838113
H         2.20344994508954   18.32971857614698    6.99293663251588
N         4.94462420911148    9.77199277972744    8.38395492469658
N         4.97853961519073   12.18345913124963    8.36337686298277

