58
CSD_code = CALZIB | q = 0 | S = 0 | Stoichiometry = C29H23ClN3PPt | MND = 4
Pt       13.18087257690881    0.82007098830712    1.14386179357965
Cl       11.40774611358575    0.09898583361706   -0.21619519784198
P        14.56143755514639   -0.05051215433988   -0.45621866673767
N        12.79792417502989    1.93083083478738    3.75027367205954
N        19.42406781502669    1.59888414796178    2.86875196136631
N        10.78388828335899    1.71824296873210    3.02142735327481
C        14.65912249542409    1.41231556293121    2.40652273860731
C        15.03726728178244    2.25820641368791    4.68655045392570
H        14.63971508434383    2.60330767773352    5.62921723893289
C        13.35542864762485   -3.19768978478316   -2.78889355572430
H        13.38871050707622   -4.27728237676856   -2.75931024818765
C        17.02702674833218    3.06327873889328   -2.75079817174944
H        17.60509511502431    3.80762271520610   -3.27809626815874
C        15.72996362897179   -1.18709191371549    0.35624048809951
C        16.90244403256132    1.75324744196531    3.27437402009398
C        13.93243740799129   -2.46621898031412   -1.76527387681865
H        14.40985592545122   -2.97401467103894   -0.93841102034679
C        16.03532624642259    1.37833856125271    2.24254270321921
H        16.47564598278996    1.06251609229194    1.30615557013700
C        12.67994626051141   -1.16616996207771   -3.87302627266374
H        12.18129962494007   -0.66083747030161   -4.68710994912340
C        13.25673905325520   -0.43077415377615   -2.85651488635486
H        13.20694789960251    0.65040910941226   -2.86509450444635
C        15.21222676704855   -1.84804914119491    1.46824078383123
H        14.18003039789126   -1.65001972743166    1.76048167151987
C        10.71109298797357    2.22424151314810    4.29227662969357
H         9.77502262457308    2.44560074901669    4.76281566003084
C        15.55758202978681    1.14491145910383   -1.39396296010982
C        15.51576496908373    2.47448452338865   -0.98829266142606
H        14.88858683655347    2.74322268824909   -0.14221349304053
C        14.19539430761995    1.87607835912472    3.65380668953377
C        13.89430148307017   -1.07797023487375   -1.80090836064141
C        18.29467025937248    1.67419246169490    3.05749749384890
C        16.40467634672874    2.18822722334548    4.50122010585876
H        17.08322831546843    2.47062298456326    5.29187361508996
C        17.83886943386987   -2.26965011840887    0.71211739278240
H        18.86876616328784   -2.42505168248698    0.42698729866555
C        16.31502662761489    0.78389597942861   -2.50411847913813
H        16.31120993569003   -0.24118613503109   -2.85027743860899
C        16.00018324097256   -2.72351324266320    2.18941352039654
H        15.59595303577392   -3.23521881389870    3.05047686792064
C        17.04912887727298   -1.39863097227475   -0.01904956467656
H        17.46708037540085   -0.87101630666302   -0.86408321014692
C        16.25132395728588    3.43121015923606   -1.66352747105791
H        16.21836294032547    4.46289410846619   -1.34600405730666
C        11.97807753388737    2.35924576039331    4.75422211646454
H        12.33322337103390    2.71828060338693    5.69740859546456
C        17.31720375257146   -2.93326015942258    1.80990227167216
H        17.94073047900565   -3.60837458883196    2.37687914896199
C        17.05190488205910    1.74337788894044   -3.17397250170803
H        17.64462986875154    1.46297548075279   -4.03255160701853
C        12.73099521828816   -2.55118933681733   -3.84163993645398
H        12.27619889628491   -3.12617668934851   -4.63493172303147
C        12.06673100725862    1.53351464289474    2.67579668361265
C         9.62502412237386    1.45966683844237    2.21051207744963
H         9.10657095280513    2.39429214457255    1.99072602134342
H         8.94387015915093    0.79083601545378    2.73759917531152
H         9.94494938269126    0.99266994607952    1.27650426977341

