76
CSD_code = CALZUN | q = 1 | S = 0 | Stoichiometry = C38H32N4PPt(1+) | MND = 4
Pt        2.48412598292854    1.84535034679704   11.92015294787831
P         4.62506534325364    1.48102048824582   11.11515080918328
N        -0.44878720346533    2.72869667153001   12.82351704504266
C         2.66843954490095    3.72115828396419   11.33893104561497
N         4.52559826802512   -4.31605383407106   12.36258869742500
C         2.73755547282981   -2.49884708087305   12.58751914050799
N         2.97771833426319    4.65891958533890   10.71959738144933
C         5.52389021238701    2.80536112425692   10.24757421824415
C        -0.40474681961103    4.15890508989456   12.68607570596148
H         0.61695525748031    4.46810285126038   12.47049045278155
H        -0.73624468731195    4.63195695101976   13.61100457002613
H        -1.05785366894007    4.48158425916894   11.87323902426346
C         7.46164146540607    0.42331640196899   14.54285094251377
H         8.11415699358057    0.17225734247345   15.36469577021077
C         4.08427861536082    6.87833725768906   12.06655672420518
H         4.72607418836546    7.70067269306572   12.36831014327520
H         4.47870496578123    5.95130270537777   12.48032924089408
H         3.09616748456302    7.04166098845707   12.49836200441523
C         3.12683943073836   -1.18262448723135   12.31784274434413
H         4.16696023725553   -1.01811505029349   12.06783266277825
C         5.28797719029844    1.00463418915012   13.72572809271276
H         4.23212822010040    1.22776164968537   13.89112345553500
C         3.27678731645526    5.58697661905021    8.56370759601748
C         5.46904006429407   -0.75134763365584    9.54610937184284
H         6.41236612703124   -0.74996667568890   10.07146338903506
C         3.25991756683851    0.14873781434009    9.19806344914394
H         2.48787012076110    0.87431496734864    9.47765979671809
N         0.05158509732536    0.63599967813939   12.86947790434000
C         4.48721183730873    0.17909105229521    9.85885685470578
C         6.12338897268899    0.69491770691064   14.78204352118536
H         5.73593168485306    0.66489605765684   15.78898627906558
C         4.00366938092630   -1.72354863422598    7.90814793431222
H         3.81666687094697   -2.47038684250486    7.15228110651103
C         2.61628958818069    4.39259031100602    7.95246708234775
H         3.00875148004439    3.46970559527509    8.37942330956696
H         2.77348281878003    4.37797378286592    6.87819287399250
H         1.54245672845140    4.41745798823813    8.14165107002242
C         5.78947851897413    1.03850574138158   12.42690115940701
C         5.21935632731524   -1.70327410250046    8.57207468402227
H         5.97545075041442   -2.43583675871046    8.33581375445970
C         6.05804731218349    3.83813934287751   11.01588122626070
H         5.97464191485562    3.79243747481507   12.09485836734602
C         2.22789878173510   -0.12908760826085   12.37594857774973
C         6.69508319135645    4.90057657025952   10.40490655259324
H         7.11439941225584    5.69492877164252   11.00329504158568
C         6.26915457787027    3.91980000479158    8.25580950951269
H         6.35505689595044    3.94980316926143    7.18041766849035
C         0.50861313813776   -1.76422825911216   13.03944042303385
H        -0.50930121730733   -1.97648443466938   13.32702199043852
C         3.40676485771388    5.69225867398211    9.95550040309121
C         5.63259807626568    2.85040256293794    8.86242194391848
H         5.22976744212210    2.04691986938272    8.26128608872641
C        -1.25025479339373    0.72899627619098   13.26209756953147
H        -1.85215089524055   -0.11345998687096   13.53036662549273
C         3.99239120659548    6.80324065715576   10.57570182553888
C         1.42472735066428   -2.79479685756480   12.94016973481441
H         1.13168073782971   -3.81355928639159   13.13991821811849
C         3.76485177614771    6.62901831744337    7.79287319604406
H         3.67872860670005    6.57417594340965    6.71870720806623
C         7.14119322915508    0.80492849454101   12.19347163555052
H         7.54227714867926    0.88955177888754   11.19289172308376
C         4.46450451458373    7.81958038819448    9.76120090046806
H         4.92063728302027    8.68719521457889   10.21232692635430
C         3.02046075881446   -0.79606717318069    8.21989078310049
H         2.07043835925216   -0.81980581859211    7.70776366083277
C         3.71149089154849   -3.51775318695236   12.47501716384446
C         0.91653943159735   -0.46988827850008   12.76134794381817
C         6.79630647278625    4.94462179864751    9.02273273727335
H         7.29005387126967    5.77666193914851    8.54551864290655
C        -1.56511804932235    2.04835500769261   13.23127986880650
H        -2.48236031900586    2.54689534063503   13.46721946548136
C         0.55179604350470    1.86185635533372   12.59836673226282
C         7.96981538577206    0.48737868128134   13.25433195513461
H         9.01687463230770    0.29450265268243   13.07735096034024
C         4.35483183958146    7.73356849704958    8.38376627110880
H         4.72851405421568    8.53517201319131    7.76610650335131

