72
CSD_code = CAMDUQ | q = 0 | S = 0 | Stoichiometry = C28H38Cl2O2SW | MND = 7
W         3.78349069462166    1.46023076004101    5.41558604019568
Cl        2.85286429081713   -0.55401109843090    4.93700180466785
Cl        6.01072533829480    0.74245985115082    5.17116429494401
S         1.48211740915450    2.57384541158951    4.54168058255424
O         4.06506545278220    3.26247196925079    5.48371084089865
O         3.98995018868249    1.62731805865191    3.44415520089230
C         3.57501819419742    4.31192908809101    4.83132986985264
C         2.28100991315883    4.17714415771120    4.30761428411497
C         1.66240363804408    5.21181856977699    3.63638512984370
C         2.34427628216804    6.40798824569805    3.45723572294526
C         3.63737798162373    6.53139392251669    3.95602978536361
C         4.28136428585030    5.51281113999575    4.64300319131910
C         1.70122951624580    7.53464068064453    2.70749279856929
C         5.70527433984685    5.59868503841947    5.16857440320300
C         6.34777137864930    6.95938836118292    4.88929260662958
C         5.69540717341947    5.36424149149973    6.68659654591601
C         6.54166836824616    4.50991921582472    4.47758066294820
C         3.02445087903732    1.50085634659646    2.56010680615971
C         1.72571334970467    1.91814691338840    2.88454392516871
C         0.66023808782087    1.84647625266025    2.00820057210735
C         0.87088681897567    1.33346089539785    0.74231144083876
C         2.15215230453190    0.90014594110069    0.40535353540466
C         3.23360969223061    0.96218510057146    1.26501634667739
C        -0.24501868428250    1.23002123298990   -0.25351375982105
C         4.61007544493633    0.42906098980971    0.89559840249275
C         5.65336711997632    1.54615366148081    1.03845721851008
C         4.94710149255938   -0.73084636807205    1.84401307793667
C         4.67057684327767   -0.09670446082157   -0.54176521013658
C         1.55251379435681    3.37062159441114    8.15072784088319
C         1.69237347267331    1.84543546482097    8.13971212781374
C         2.86371402172201    1.46266500230118    7.29222920408800
C         4.10144289549536    1.07732959007400    7.45631729335583
C         5.06277667616740    0.77075020368532    8.55718592043631
C         6.13266260777546    1.86423420309540    8.62242137399683
H         0.66554914004953    5.07748051802665    3.24674811253994
H         4.15169554523516    7.46462776852626    3.79312423688005
H         0.64256018469836    7.60026297942878    2.94575020310904
H         1.79310447480990    7.36861072557907    1.63424739104494
H         2.17678364588485    8.48197163114572    2.94616775157044
H         7.36049148516639    6.96509790692657    5.28553695703453
H         6.40462731557428    7.15445350053789    3.82111297118222
H         5.79285835252520    7.76096696932284    5.37144899712268
H         5.08049920123695    6.11457471490285    7.18060158977670
H         6.70785560754558    5.43126681220832    7.07774551706304
H         5.30258651931613    4.37544289571777    6.92518563425993
H         7.56918002093780    4.54864896997622    4.83141930116269
H         6.15232235198105    3.51014663896584    4.68794056957434
H         6.54040586531666    4.66061122212046    3.39949645508298
H        -0.31535569891969    2.18118721709321    2.32568186317936
H         2.28663416974696    0.49274793297832   -0.58368641203821
H        -0.00997493412240    1.80194271941280   -1.15016425666825
H        -1.17409020760192    1.60657315410667    0.16548094816130
H        -0.39362994932238    0.19287014448904   -0.55016570432751
H         5.39531328510636    2.38864048069857    0.39817616042417
H         5.70927507469385    1.89263278655057    2.06651445603438
H         6.63518728783700    1.17650296978372    0.75111138372642
H         4.97412228336341   -0.39483202926465    2.87938175053222
H         5.92359401805142   -1.14343858847222    1.60030073911388
H         4.20085271614399   -1.51900736280858    1.75784403658995
H         5.67753330989110   -0.45420453013223   -0.74666590671466
H         3.98531530766382   -0.92866610973584   -0.68718105674600
H         4.44041442843179    0.68884285166624   -1.25859700410341
H         0.70713712932757    3.67227349685923    8.76486187286200
H         2.45637719394024    3.82628545536450    8.55055834875740
H         1.39800829806768    3.74423914445853    7.13827424503913
H         1.83918562882908    1.48193123404978    9.16192044338311
H         0.77532460505450    1.40121325132597    7.74271343835515
H         4.53167506756024    0.70400066578498    9.51332931327486
H         5.54908476437150   -0.18894548575782    8.36047471850784
H         6.88289416994455    1.61921406371922    9.37059023432403
H         6.61832323683654    1.95617414577877    7.65165972194779
H         5.67992784204504    2.81939171158680    8.88281109822146

