80
CSD_code = CAMDIE | q = 0 | S = 0 | Stoichiometry = C36H38Cl2O2SW | MND = 7
W         1.88739138493583    4.48913456838298   19.86345654098877
Cl        2.06986066354825    2.89926579795847   18.25154788808771
Cl        2.35190703759781    6.18929741372267   18.31171462037356
S         0.31800123603299    2.76278321398280   21.26903688329126
O         0.05275895837576    4.76979161261824   19.18903466363157
O         1.33328239138034    5.38619857169736   21.36190365947821
C        -0.85198393517677    3.82406458585190   19.03466925406375
C        -0.90810884216330    2.76324012615951   19.95024313714462
C        -1.84438368987827    1.74971920617584   19.88385034668868
H        -1.82849178086356    0.96159133415663   20.62061600857276
C        -2.77645161227865    1.76564004587090   18.86327312466051
C        -2.72648743951019    2.80356404101584   17.93494010458481
H        -3.45668520777411    2.78703982474326   17.14213980038168
C        -1.80032658203168    3.83020051061021   17.98094290899479
C        -3.81793946843380    0.69451612817036   18.74059009044044
H        -4.81649430858952    1.12757683732414   18.78539389237064
H        -3.71888027597671   -0.03497003465282   19.53982039982713
H        -3.72150881356108    0.17901736596891   17.78606968737479
C         0.25547851133026    5.34241483626158   22.13943081814037
C        -0.38103461589036    4.10026724304640   22.25777701288002
C        -1.48965773249681    3.93072354888237   23.06360093419077
H        -1.95506702889409    2.96040633615724   23.13536481558785
C        -1.99565551373305    5.02242399009225   23.75302907164078
C        -1.38011709623653    6.26442897571009   23.60771528101719
H        -1.80654475291364    7.09835774380866   24.14167636323564
C        -0.26197583116128    6.46287790890945   22.81376888071615
C        -3.20244080047025    4.88571267493141   24.63059167599981
H        -2.99476146673842    5.27407084733432   25.62597393912156
H        -3.50366513199209    3.84571674118215   24.71675638844823
H        -4.03524440981329    5.45435109647963   24.21862016297131
C        -1.73005235911781    4.91887468435553   16.91995863182867
C        -2.84172384934748    4.79325441832076   15.87369136343473
H        -3.82541044815980    4.86732513962079   16.33262196325078
H        -2.76795009929907    3.85457766733853   15.32944605294850
H        -2.74465858059351    5.60380355210036   15.15448238505008
C        -0.37946448891998    4.79875258344690   16.19959657470430
H        -0.27920778362487    3.81449098522964   15.74496960235496
H         0.44735712363673    4.94436126713049   16.89295408235500
H        -0.29988036695126    5.55436975088461   15.42128838497954
C        -1.85320493989886    6.29829497677690   17.58206427020919
H        -1.03249536764700    6.46957945941784   18.27295718170146
H        -2.79275308474953    6.37280656522697   18.12783894637987
H        -1.82671813797869    7.07747489909381   16.82359834461716
C         0.40972145107169    7.80804313749189   22.58735399377957
C         0.32631948974370    8.14084198149101   21.08826855099756
H         0.79903098114024    9.10058996726250   20.89297655295485
H        -0.71401088275308    8.19717249752524   20.77262790447255
H         0.83188270997326    7.38634540733551   20.47782203603369
C         1.88017718391679    7.72236139864248   23.02432509266598
H         1.94565594950927    7.46154145706412   24.07895769553505
H         2.36654555278342    8.68342073752907   22.87421411309589
H         2.42168151260800    6.97177321962294   22.44752912503669
C        -0.26626433155204    8.93307788624083   23.37466829139383
H        -0.21989941006863    8.74375851509224   24.44456129390109
H        -1.30514219247978    9.05108948195164   23.07630359318169
H         0.24857166765927    9.87003305802459   23.17563794337281
C         5.13605810079550    5.48509696760743   20.37151242907310
C         5.09090413518922    6.88178269497768   20.34074016881782
H         4.12653539118235    7.37261428348044   20.34509838419740
C         6.25975775429612    7.61627240491004   20.30420933777835
H         6.21675053760112    8.69551861571585   20.28518129949818
C         7.48708111187921    6.97253660323136   20.28070985393555
H         8.40007487787785    7.54853911752595   20.24486925591857
C         7.54144658094874    5.58753088904192   20.29720954021566
H         8.49763650895536    5.08489877153090   20.27327263900428
C         6.37832019336731    4.84463688775836   20.34802932194151
H         6.41443977052992    3.76486637066775   20.35789348878770
C         3.90405263414638    4.72804347619796   20.42077987283217
C         3.92801949271548    2.46992293424046   21.69629714628253
C         3.44591645395773    1.18111562742282   21.44878782664144
H         2.73938227810993    1.03304251892818   20.64135619450666
C         3.88539740953519    0.11388585063766   22.20691438184980
H         3.51619679339714   -0.88015833250135   22.00118021928553
C         4.79429506683796    0.31644092933218   23.23377203420542
H         5.13295497232790   -0.51839957385090   23.82933031081938
C         5.26903958588039    1.59245521775051   23.49465645326958
H         5.97739013025451    1.75103670778047   24.29495827267574
C         4.84717641542757    2.66341295082577   22.73142703920862
H         5.21474808494728    3.65998141429914   22.92852411737780
C         3.46074457432213    3.57678888574295   20.89122808672399

