83
CSD_code = CAMFIF | q = 0 | S = 0 | Stoichiometry = C44H35IP2Pd | MND = 4
C        -1.66414839750907    6.07669885276349    3.41856745405609
C        -1.66457447914511    7.28762193154272    3.41792692861504
C        -1.66558809069146    8.70141493870957    3.41753871170877
C        -2.05780369622131    9.40393846475265    2.27711697688289
H        -2.35883413688706    8.85333641142014    1.39598931276491
C        -2.05677092578734   10.78481620398111    2.28157234130863
H        -2.36107345173672   11.32515113311343    1.39595571269327
C        -1.66728838027659   11.48009275764278    3.41570194393340
H        -1.66762149035325   12.56045890154274    3.41486276657473
C         1.33791304538539    5.36162942446936    2.15016801516465
C         2.30810075977720    5.57932849774336    1.17596990252820
H         2.18339236049277    5.15392387439752    0.18861707533075
C         3.42927752864320    6.32761262261331    1.48131318958992
H         4.18029046692070    6.50425011070725    0.72503268342100
C         3.59390592529068    6.84682793441026    2.75659842954227
H         4.47223435180787    7.43075815733553    2.98917983634401
C         2.64188923941196    6.60954370443107    3.73408211989159
H         2.77693743984683    7.00381329201504    4.73054909381895
C         1.51641520523049    5.86420556022717    3.43358615461166
H         0.76187172718223    5.67181730739872    4.19260145305038
C        -1.13278751772505    5.28260677846766    0.57619933061986
C        -2.44246055863356    4.81324297550724    0.44194592277977
H        -2.75762120975078    3.91931037321484    0.99742324547966
C        -3.33091753738902    5.46431868250346   -0.39138134303964
H        -4.34296828925023    5.10052694287090   -0.49707718054072
C        -2.92213808278351    6.59599737624163   -1.08229887609308
H        -3.61854438235420    7.11418581966208   -1.72523034308031
C        -1.62868796156724    7.06904401704380   -0.94111712176239
H        -1.31757046514677    7.95722178532157   -1.47205772534937
C        -0.72969388046647    6.41604246052793   -0.11347956901518
H         0.27300137544127    6.79931611680592    0.01198122317354
C         0.57244465481835    2.99867321443513    0.84159168600811
C         0.21315964923331    2.70821556707069   -0.46816190107483
H        -0.50269234274084    3.33177439804061   -0.98709415141448
C         0.77651549382066    1.61572093699577   -1.10418398225075
H         0.49839887082346    1.38913003238902   -2.12322533906339
C         1.68510134810746    0.81133349229293   -0.43775555661421
H         2.11414028363203   -0.04431151635498   -0.93755911737659
C         2.03741098825064    1.09474009521546    0.87281894676156
H         2.73622182367382    0.45997548476930    1.39648487547353
C         1.48116917777283    2.18376628720047    1.51251053044753
H         1.73416974908413    2.40811071632793    2.54243586177609
I        -1.66220178900847    1.52143409109697    3.42039691309654
P        -0.13804909213584    4.37208065627695    1.79585786083676
Pd       -1.66358068040609    4.10817097168371    3.41856068370827
C        -1.27730270822042   10.78681315902002    4.55081533075610
C        -1.27460848588062    9.40590599799543    4.55716745255098
H        -0.97289434089588    8.85698894061995    5.43901501513415
H        -0.97330690814200   11.32872225693435    5.43546551009355
P        -3.18959624638602    4.37294039633767    5.04064055607845
C        -4.66496059482473    5.36338024251748    4.68588007286157
C        -5.63517451846629    5.58120727397491    5.66003515544139
H        -5.51030058535592    5.15607996809418    6.64748110824131
C        -6.75657770963659    6.32909179268255    5.35457165708607
H        -7.50758601180486    6.50573518016691    6.11084469790080
C        -6.92146668642143    6.84783107278424    4.07913725622766
H        -7.80001837735315    7.43137259303031    3.84640546981671
C        -5.96939204799253    6.61054618372510    3.10172324944588
H        -6.10461096060022    7.00452132813214    2.10515564929741
C        -4.84369182415414    5.86557421864512    3.40233993391564
H        -4.08925667144921    5.67323309852637    2.64325785440008
C        -2.19404550455102    5.28194880588607    6.26083258642619
C        -0.88473222802672    4.81140746587952    6.39472344656343
H        -0.57023487819041    3.91743689834004    5.83894552709682
C         0.00436739566285    5.46127846966233    7.22831012040141
H         1.01614878910755    5.09661153755115    7.33354655342236
C        -0.40339112582559    6.59282301797758    7.92003995809388
H         0.29352171615169    7.11004010150905    8.56320722652029
C        -1.69651876812530    7.06687901064412    7.77944089555651
H        -2.00692122397145    7.95481060071742    8.31121394330668
C        -2.59611345626285    6.41521453190164    6.95138771570903
H        -3.59852514158082    6.79935687743819    6.82634571374658
C        -3.90124064551282    2.99959071876344    5.99419516862656
C        -3.54279325172061    2.70911786001098    7.30419650751395
H        -2.82762617655148    3.33301298404252    7.82366876596612
C        -4.10599466029325    1.61625718272913    7.93968578372193
H        -3.82838981223637    1.38964535636766    8.95885702865746
C        -5.01366056994961    0.81147226920340    7.27247527737059
H        -5.44244894165952   -0.04459342423017    7.77177002182263
C        -5.36530497136406    1.09499671822788    5.96175835888896
H        -6.06345413385747    0.45992939468343    5.43755580373130
C        -4.80918714721941    2.18440767142694    5.32257920043038
H        -5.06165521320163    2.40874441184987    4.29251345187047

