77
CSD_code = CAMLEJ | q = 0 | S = 0 | Stoichiometry = C30H44HfN2 | MND = 9
C        -3.74697376553082    5.87816839125992   10.47224571739378
H        -3.26178109673212    5.18059173863509    9.78208795180770
H        -4.53854805945204    6.37562244955341    9.89835539919387
H        -4.26290494580570    5.26781950965288   11.22382050815646
C        -3.98318042272175    8.23631005521874   12.65787604487763
H        -3.62447375468728    9.10166388722399   13.22514227256415
H        -4.42583353460857    7.53845400209119   13.37612550918715
H        -4.80635764612144    8.60134217604994   12.03370746660187
C        -1.03796843541805    7.27732836012579   13.53723413016521
C        -1.58576453106824    5.97796478905805   13.34986220016644
C        -0.94984229828066    5.38598769625279   12.22431282094987
C        -0.00204529176151    6.31363436709204   11.72179247765427
C        -0.06812804663422    7.48610918818378   12.51889970441820
C         0.96539908698344    8.57804460874511   12.46269008790733
H         0.79903103721556    9.31878182341357   13.24044893279980
H         0.97701409059769    9.08195251840471   11.49453814713132
H         1.96001834090382    8.15261407610867   12.61906943941902
C         1.13278781592498    6.03325702435242   10.77631294080630
H         1.03441913033730    5.05486344129733   10.31457916080735
H         2.07574538309017    6.04259439032372   11.32929502475574
H         1.20935453205994    6.78452732904362    9.99017521133188
C        -1.08767006302327    3.93767745977044   11.84030320771538
H        -2.13145012378720    3.62687508773604   11.81303593225085
H        -0.57609806084904    3.30659636807209   12.57092300897208
H        -0.64684950109837    3.73737081606591   10.86604689539138
C        -2.51248905568751    5.25599096671339   14.28803727705852
H        -3.16987577872522    4.57526409185662   13.74858486522684
H        -3.12932649575291    5.95070436755228   14.85423478323083
H        -1.93920522031115    4.66286752024423   15.00494388178560
C        -1.52383302425270    8.94859458474111    9.37051588729288
C        -1.07939346081916    9.82911687187752    8.35593710057822
H        -1.23352570181853   10.88987470431298    8.48236593808469
C        -0.45409846252058    9.30951379334330    7.25271098966857
H        -0.08968651498995    9.96299803401347    6.47283692807524
C        -0.30780547881442    7.92787635616371    7.13314890690740
H         0.14874896702902    7.49384624962812    6.25816289261622
C        -0.77053406247857    7.11421873292502    8.15303404306507
C        -0.70261290864508    5.62221115771923    8.02010827913594
H        -1.01266926305419    5.15125150375592    8.94886084843141
H         0.30469123836078    5.30207970685594    7.76160028001507
H        -1.37123602824917    5.30096875949711    7.22181259789472
C        -2.85229507966522   10.53402181717173   10.51224771457001
C        -2.46085373659673   11.58496501099629   11.35577175308880
C        -3.16434451868680   12.77847062127149   11.33255630056215
H        -2.85193196639228   13.59742521837930   11.96222837400870
C        -4.25532377591943   12.94101025825360   10.50049488865272
H        -4.78729820863412   13.88074003862372   10.47855286816015
C        -4.66912133416694   11.88979656239740    9.70528529109549
H        -5.53462190809825   12.01862347664301    9.07265188810406
C        -3.99475316481886   10.67761803715384    9.70256723657645
C        -4.52009272503851    9.53862946493121    8.85522006610529
H        -3.94682056637372    8.63154508472643    9.09228989384690
C        -5.98979078568537    9.24622527857579    9.17265070977481
H        -6.31583537127192    8.36027540851301    8.63167404565345
H        -6.62892696195186   10.07526248484761    8.88052920733439
H        -6.12177785799293    9.06752887484238   10.23690963776241
C        -4.35911444839669    9.84236090639108    7.36317460505167
H        -4.72744570052069    9.00910552712382    6.76825130489287
H        -3.31277805812705   10.00498135960721    7.11634066566093
H        -4.91960455917357   10.73422648941345    7.09215312671193
C        -1.25128609241720   11.41081644695542   12.24154259950330
H        -1.07894583993719   10.33193421895869   12.32863371232281
C        -0.02674926221319   12.04846185952143   11.57946925330991
H         0.85735178503644   11.91451170727308   12.19968497636185
H        -0.18821703683399   13.11473506113245   11.43281908888488
H         0.15945970787433   11.59351539582143   10.60904456778579
C        -1.45933074223211   11.98259509332154   13.64393105079248
H        -0.63435131478733   11.69147993692327   14.29232012599941
H        -2.38783554411517   11.61286735354924   14.07376633972062
H        -1.49673492788470   13.06894248506340   13.62709669814355
C        -1.24157851418130    8.14688033354513   14.74874695319002
H        -1.20258034352761    9.20534832687802   14.50000243783297
H        -0.45957588367894    7.94787147559074   15.48623814217164
H        -2.19940900736818    7.94385218090045   15.22231607234454
N        -1.33275058514575    7.60373173912775    9.26256453919466
N        -2.12891566637809    9.32270239905617   10.50504450778786
Hf       -2.37656859349103    7.35171311158047   11.40945366551877

