90
CSD_code = CAMMEJ | q = 0 | S = 0 | Stoichiometry = C33H48CrO6Si2 | MND = 9
Cr        4.31351204058231    7.22061177035670    7.17920874747634
Si        3.65201307266328    8.50374629777635   13.37661165449582
Si        0.26518208776836    6.52277034682137    9.69260229121125
O         2.08097000125489    7.28974826229117    5.21895854963860
O         5.05531813219314    9.66381276909107    5.65501246199008
O         5.63369096965334    6.01040413948128    4.80584857738574
O         7.15493125155092    6.89288497371146    8.97646901344874
O         3.40610833061946    8.68154717217219   11.76752397165001
O         1.62642772009671    6.74444498363506    8.81630459346312
C         2.92592317438711    7.25269606530373    6.00793739366616
C         4.77249402177490    8.72924479615948    6.27988055490606
C         5.13474118166693    6.46187083760701    5.75087380915082
C         5.11095275724574    5.64888528764570    8.62710670031073
C         5.77233267813837    6.87178948852823    8.90036537643040
C         5.03974273448944    8.04057357029543    9.17189543078322
C         3.62824238127622    7.98686177732759    9.17714826782043
C         2.97355072106929    6.77521587672962    8.89062112481172
C         3.71011834562927    5.59274027523700    8.63858268791038
C         2.97145722561425    4.30569410128256    8.39419821817506
C         3.85778123540319    3.27804205266649    7.70142691583952
C         5.14894467781578    3.12735326911010    8.49681562698397
C         5.95356903610547    4.41866863257994    8.40043432710193
C         7.82394944435623    7.21133497012493    7.76640954891744
C         5.74416474331237    9.31571699758407    9.53928588321542
C         2.20062288839967    9.97780640433534    8.61955475511936
C         1.50531659697652   11.10405704313399    9.02668375066099
C         1.47011847435090   11.44881399748936   10.36732864361623
C         2.11003552085635   10.66422188342151   11.31219203671752
C         2.78759895159404    9.52415634870742   10.91220680944444
C         2.84839880833761    9.18678139430944    9.55423837522009
C         2.03246747285456    8.49155030866752   14.38703734684992
C         4.78282010393752    9.89387721221926   14.03030196864472
C         4.50466524772794    6.78006457843921   13.39557905992945
C         4.66195302490412    6.29764435506911   14.83778601672555
C         5.89127576819988    6.84942648250896   12.75119916862254
C         3.66679349739241    5.75765872669809   12.62197101844002
C         0.20577775643133    4.80016008486089   10.52264321363275
C         0.04314465732689    7.80264202244420   11.08541853294355
C        -1.06330504418916    6.71881771954242    8.31785373681220
C        -0.97350056677655    8.10978639813629    7.68424146759216
C        -0.86917376969248    5.67981363111576    7.21001974547458
C        -2.45795686465097    6.54003325117762    8.91939129811640
H         2.08084731235982    4.51203841698529    7.79737305476006
H         2.63588547514193    3.90343078090094    9.35630953854239
H         3.33297054438271    2.32393568075127    7.63535533408804
H         4.08760302198822    3.61423903150616    6.68742656276121
H         5.74604702637248    2.29906091535186    8.11279296217068
H         4.90810689193035    2.91181016379539    9.54084290563230
H         6.77629841172573    4.41921321443290    9.12108139391843
H         6.39897798636109    4.47925293525256    7.40222509764902
H         8.88271044463767    7.25301676022067    8.01583454175840
H         7.49507312703646    8.17726069077770    7.37045956281096
H         7.65696480434433    6.44652757058408    7.00283626670111
H         5.41098581023263    9.66022215687388   10.51737399466990
H         5.52317401502980   10.09873319273709    8.81394183285265
H         6.81916352244098    9.15620488487860    9.57888945162533
H         2.25876900064823    9.70657135636439    7.57446844992525
H         0.99929237446002   11.71581491472297    8.29634737079081
H         0.93953138790465   12.33393586923840   10.68492479295053
H         2.08675611741485   10.92007395239951   12.35969777751548
H         1.40065666330337    9.34071493837686   14.14334774683674
H         2.23688643030042    8.53524456042525   15.45195346922864
H         1.44684997922909    7.59471674182062   14.20555044158957
H         4.26397657150410   10.84815535111757   14.05367618686484
H         5.66187276048714   10.01934421037955   13.40439707079964
H         5.12567116274085    9.68889594661317   15.03892580737071
H         5.15223828690659    5.32492505943066   14.86434306438649
H         3.69432121718978    6.20312218415657   15.32433310724628
H         5.26549262242628    6.99561307476031   15.41301681133710
H         6.36334006055473    5.86696112526621   12.75964256906598
H         6.53657559858440    7.53740520698952   13.29201498038294
H         5.82271349502480    7.18051258673183   11.71824281516320
H         4.16335265415174    4.78700522112014   12.61659957119815
H         3.52906461632190    6.07808960878374   11.59081879424639
H         2.68545475836377    5.63461392033357   13.07604633902021
H         1.05838525924124    4.64685038004606   11.17898778871387
H         0.19551273650417    3.99093543857835    9.79879628711075
H        -0.68762636082546    4.69941181852086   11.13066150464556
H         0.87233037377384    7.76830234973836   11.78427777215074
H        -0.86472110506732    7.61087808625519   11.64832027818714
H        -0.01525571653615    8.81558850861175   10.69961352266135
H        -1.73572803194186    8.22255770186371    6.91416331615796
H        -0.00042943327086    8.25342156690641    7.22271009488276
H        -1.12161025676636    8.89015134832469    8.42735402665784
H        -1.63630026000352    5.79754432485874    6.44566397811216
H        -0.93776561956220    4.66793327931308    7.60394098052301
H         0.09992768163793    5.80743247363663    6.73437207951300
H        -3.22122549998955    6.65465572632083    8.15075318984464
H        -2.64290338370228    7.28093901230166    9.69330398699076
H        -2.56648502363872    5.55166520484719    9.35962285664034

