56
CSD_code = CAMMAF | q = 0 | S = 0 | Stoichiometry = C23H21CrF3O7S | MND = 9
Cr        2.78063267047232   15.54507024011223    5.72429203984467
C         4.31884887004019   15.70491726180187    4.16663442823616
C         3.96238061430323   14.35227362001707    4.20641254597998
C         4.00848598407693   13.67984811595152    5.45204029066550
C         4.51926072681344   14.35913873105205    6.57110563070929
C         4.91228137111190   15.72186080234870    6.49793529571953
C         4.81737969090973   16.41025894859342    5.28338916817684
C         5.40508645680192   16.39077753050171    7.75605001593270
C         5.98917882848168   17.77896961977822    7.50890419708087
C         5.12092295938977   18.54506775853832    6.51861365221126
C         5.20171134128297   17.85707726151355    5.15962691805254
C         3.50029602100537   13.70771841668295    2.95729151634738
C         4.23662955711734   12.70515144838444    2.32242822348426
C         3.74510963664674   12.17331906164343    1.13552225874599
C         2.56010529088738   12.61626676264871    0.58333693828217
C         1.83443832034917   13.61135207893311    1.21706393263382
C         2.30435443480905   14.15430215446376    2.39478843675822
C         5.53895055643965   12.19093260697853    2.85899852937903
C         3.52540329316948   12.26431532593386    5.57037326805745
C         5.73179138674583   12.87308073022624    7.94751511083614
C         5.96774058402001   17.50381841586386    1.34284390781367
C         1.76638002021736   16.85795227536846    4.97860206995333
C         1.19389831449563   14.65404602414257    5.68662418283569
C         2.06634278685549   16.18151143077350    7.27284173920233
F         5.03829959057278   18.42960559671477    1.14961630067436
F         6.69776832654917   17.39103974569603    0.24054473886503
F         6.76294003597627   17.90984723870872    2.33145224776244
O         4.24015374322488   16.37575900876167    2.93143181673661
O         4.48851057228417   15.43907698651609    0.62551309279739
O         6.22878794111611   15.05039011232311    2.33639089401514
O         4.60682615381911   13.72225391505064    7.80028622313133
O         1.09072312981488   17.67493433044017    4.52411048241613
O         0.16000536254656   14.14062537074532    5.66695623975527
O         1.57381668752929   16.60067658488553    8.22917603914966
S         5.18846802818531   15.84449820238834    1.78453843352028
H         4.55818031826016   16.46475595366081    8.44509925536324
H         6.14792767481811   15.75476908694166    8.24416947661811
H         6.05391862082817   18.31437545641845    8.45669484908504
H         7.00084226746190   17.69278764927511    7.10431641204775
H         5.46378888012390   19.57617635705371    6.42964824014270
H         4.08380737898041   18.55252204054972    6.86333354004618
H         4.54004563231511   18.34499895418694    4.44042035992875
H         6.22469810853301   17.93124786403495    4.77362717297911
H         4.31529137356222   11.40213092285151    0.63802502142608
H         2.20414000284075   12.19020644641921   -0.34233440021604
H         0.90740562086664   13.96573695817291    0.79449372001699
H         1.74330824689018   14.92724230108427    2.90390473823160
H         5.43166068038125   11.15447607201447    3.18247727483355
H         5.90158281002069   12.79325673630009    3.68724979451044
H         6.29213978022792   12.22035248807667    2.07439232457847
H         4.31549099393227   11.54994440929264    5.33658203104635
H         2.70416539909724   12.09236009514991    4.87723251095973
H         3.17675753909830   12.08009055104268    6.58517755861296
H         5.69091534610051   12.01999611011403    7.26425652925856
H         5.70064461074084   12.51497547903406    8.97433825282038
H         6.66877942685816   13.41496435384071    7.77834453194677

