85
CSD_code = CAMRIR | q = 0 | S = 0 | Stoichiometry = C44H34AgNO3P2 | MND = 4
Ag        1.06029101507025    3.95985104441364    6.69944449241101
P        -0.28061730545766    4.33145979481122    8.71387860404582
P         2.92834549526123    3.57848479573660    5.21893194263500
N        -1.46909484652079    4.14087167802738    5.35030808879779
O        -1.20363446713878    3.17019919824230    6.09075015554725
O        -0.56257982936708    4.94794709311527    5.10362819245406
O        -2.57770048201020    4.27881134567371    4.89430455324678
C         0.73464574858724    1.13075376671575    9.09520801187424
C        -0.18839465193196    1.83695237710967    9.83872468172492
C        -0.24404841159609    1.65250684313284   11.22803938044542
C         0.50080619319558    0.67033848448048   11.81884432543360
C         1.87540164899409   -1.34330424399285   11.61487233134592
C         2.44373236296110   -2.27566553499732   10.81336411068784
C         3.22356045105573   -3.01819034605473    8.60882921768047
C         3.52068760954597   -2.76613932187460    7.31157701383508
C         4.06191774871699   -1.12275922871691    5.58053458193741
C         4.29024789395986    0.17552408544414    5.21978945814298
C         3.96649158996229    1.21712011790103    6.10126123177402
C         3.27276762401820    0.93592904188367    7.25980300863896
C         1.53369371280622    0.12754236244809    9.67434579801152
C         1.33191321177561   -0.16117071244698   11.05022077860304
C         2.99694788012954   -0.38859003027992    7.64938640836349
C         3.49558383929928   -1.43307819345558    6.82779366162831
C         2.40150270614859   -0.73068060413643    8.91288760089102
C         2.68859462655055   -2.00210654751744    9.44260665004115
C        -1.15264161597578    2.77381216815700    9.18522342918882
C         4.40671200130288    2.61056907463736    5.76596657663493
C        -1.61441935427097    5.48524382312993    8.29448381903013
C        -1.24827195432322    6.82380365953862    8.15924417929835
C        -2.17538700269648    7.76135509510921    7.75107044327153
C        -3.47187435799743    7.36703716775600    7.45769377197275
C        -3.83557327494599    6.03695800603768    7.57493543318569
C        -2.91214556322361    5.09311439303916    7.99061705413754
C         0.19740134424817    4.87256885225986   10.39101784274146
C         1.46454097197583    4.52435783839863   10.84302851061763
C         1.84882594422304    4.81918494535708   12.13776787458343
C         0.96970824910243    5.47333899851353   12.98516422416200
C        -0.29179748227179    5.83005841922981   12.53625427663100
C        -0.68196005584878    5.52760319167663   11.24429619203160
C         3.59340239259702    5.05960235736543    4.40673087428158
C         4.93456897605814    5.42280532392531    4.37548407678504
C         5.31652206933602    6.58486706980428    3.72622316653407
C         4.36889678718478    7.38777298513153    3.11456774270901
C         3.02751316614055    7.03874772422923    3.16269674867348
C         2.63757653859556    5.88370748359488    3.81174691871591
C         2.43111869873213    2.56020668347120    3.79641605195838
C         3.12264641812342    2.59129729263835    2.59025921828466
C         2.74039792351916    1.75407922362468    1.55866373572641
C         1.67412188865270    0.88462122005987    1.72672242266722
C         0.98192588237323    0.85463311746966    2.92618573419938
C         1.35808560531810    1.69210845784239    3.96013128468479
H         3.02734645119099    1.74829757507450    7.93399248480390
H         4.76728181175581    0.40448766016063    4.27763331268428
H         4.37340778671449   -1.93181610238811    4.93588967020922
H         3.86702897386798   -3.54943732901850    6.65334613493560
H         3.35647218695718   -4.00482938746829    9.02857293684644
H         2.74931365817335   -3.23508846796442   11.20500535988581
H         1.74151292764791   -1.52044530206512   12.67211109548592
H         0.40960003391906    0.47685944404955   12.87799416974350
H        -0.91802115704217    2.25689617066133   11.81824494121285
H         0.75870713960345    1.28700847492769    8.02039537821969
H         4.83289415648195    3.10962962453766    6.64122219153734
H         5.14322583989196    2.58967015822213    4.95784189975693
H        -1.97322081772849    3.02498575113279    9.86466760794947
H        -1.54019457587900    2.34736644309499    8.25704582519631
H         0.81286255160199    1.68736906191640    4.89924229902901
H         0.14507993596989    0.18456692615978    3.05340471889646
H         1.37837163210059    0.23432544902331    0.91677043464764
H         3.27378407598744    1.78048649026839    0.61939603665613
H         3.94974642834591    3.27676458114123    2.45959115389427
H         5.68340152654109    4.81067721350035    4.85726060022360
H         6.36015405103923    6.86358608889953    3.69914960251448
H         4.67508102534534    8.29079269501845    2.60740119398634
H         2.28567922053667    7.67114197895422    2.69864608649840
H         1.59073354029385    5.61218231043817    3.87323711860969
H         2.14374019231534    4.01691922655708   10.16776963225073
H         2.83240986885146    4.54094167532222   12.48704845996468
H         1.26784490830508    5.70752445865828   13.99648603736326
H        -0.97564775885505    6.34173894123518   13.19797021353872
H        -1.66774372523846    5.80195153874553   10.89367583179675
H        -0.22612954429450    7.11507936279596    8.37345701772630
H        -1.88590471958903    8.79682175020777    7.64584722575538
H        -4.19431966875153    8.09633657511057    7.12257225303755
H        -4.83830362873593    5.72555182598494    7.32431513257952
H        -3.19864988643947    4.05399529871084    8.04637005851662

