102
CSD_code = CAMTIV | q = 0 | S = 0 | Stoichiometry = C53H42ClN2OP2Rh | MND = 6
Rh       13.61489682271691   10.62615715745119   11.88456221598242
P        11.43141801686268   11.09981838731224   11.38990000268524
P        15.80373870801594   10.30874612349471   12.47483129317755
Cl       13.21628859520637   11.36387197903471   14.06038365803179
N        13.94529773131513    9.98989840369542   10.09602482749278
O        14.23832245135361   12.55297154316032   10.83165185114294
N        13.79658691106453    8.75931433047962    9.81137956194034
C        13.17873726627974    6.65325474759187   10.76511609284044
H        13.33743218456464    6.17342953007010    9.81040403250852
C        14.47922592315405   12.23916244278538    9.61674951847724
C        13.19002449789748    8.68028678694276   12.14161876789729
C        16.55898089987856   11.61436886450791   13.49382827781927
C        13.39075935087071    8.01061038048810   10.88607078519430
C        17.62091342868594   11.32366246355990   14.34458391817730
H        17.99524036017427   10.31208631489242   14.41815562266152
C        16.08355524071180   12.91850612276196   13.40319460229813
H        15.26381680971296   13.14246870490634   12.73587621386010
C        16.20286288602127    8.81538563694094   13.43555627627041
C        11.20623322724477   10.05663926232013    8.81663326979309
H        11.22930296491918    9.08898075630838    9.30078806094334
C        18.19259662483501   12.32994022250493   15.10155805772226
H        19.01449403421332   12.09984844864188   15.76407875499369
C        10.78704740739346   12.69262759903303   11.99209268564854
C        11.19987593177997   11.21857265600198    9.58792057591540
C        14.34086979332436   10.89108513900457    9.15701795878013
C        12.75915551726606    5.90087720816543   11.87437366804418
C        10.15482724882581    9.94796665661490   11.98782785978449
C         9.41630037401046   12.87986892275478   12.14503967669942
H         8.73190885150360   12.07231679854568   11.92467608840877
C        12.55529804835739    6.55922761570930   13.11748633105791
C        11.66267897036666   13.73482185277216   12.27510601970394
H        12.72535423242319   13.58935044862810   12.14710411589659
C        11.21792670054391   12.45704807624598    8.95536855317044
H        11.23531312591344   13.36089219512282    9.54833011668104
C         9.27012536427046    8.80368410776017   13.90964405465679
H         9.30013682021672    8.59309317897499   14.96837618961553
C        12.13336338794155    5.80324778684854   14.22670578085500
H        11.97988438722704    6.31025633085073   15.16850737455702
C        15.65900953565065    7.52720993191283   15.39300513703422
H        15.07633714191015    7.39313657319114   16.29219858181347
C        17.36881224883000    6.76880003064586   13.89211429761303
H        18.12281888335501    6.04398118281436   13.62064368573750
C        16.60653283745480    6.58228324128657   15.03239554520701
H        16.75803539922307    5.70536191438163   15.64446549796109
C        10.18497205252671    9.67692637079880   13.35447392994361
H        10.92944500960832   10.16571320748194   13.96858555473301
C        14.89608931788266   13.19512502859338    8.65683878391949
H        15.00981207687930   14.21942104587059    8.97887395849668
C        17.56005250847199   11.40070977957114   10.59076722229470
H        17.56863231559552   12.27833718658178   11.22183821050550
C        16.87098689525087   10.26403423021023   10.99980957861019
C        17.17397471466106    7.88303015191705   13.09334107833613
H        17.78802117554248    8.02720551503523   12.21602814349990
C        16.84361340663768    9.14539156088002   10.16733666763067
H        16.27984178387831    8.26927091235092   10.46024137047605
C        11.17116895762129   14.95025134174718   12.71632128564748
H        11.85449892168524   15.75581157061382   12.94180773327379
C        15.45822646819211    8.64045395271000   14.60083791489314
H        14.73085733853547    9.39308467669572   14.87424052674258
C         9.17734689193044    9.36350832060042   11.19219755404322
H         9.11547200516212    9.59659543619302   10.13886026504320
C        15.00155745182520   11.49666474053023    6.92291438721603
C        17.71121070007819   13.62616401031879   15.01640932455678
H        18.15566253051440   14.40690011380851   15.61640203902433
C        15.14394191236993   12.82613528663884    7.36534784247551
H        15.46053275084843   13.57440761537363    6.65135030349750
C        16.65926713776686   13.91917018491154   14.16453926659763
H        16.28265665722063   14.92933609071709   14.09737650929456
C        14.60243155822698   10.54449703834180    7.82377099237372
H        14.47775813529541    9.51056137461055    7.53895050313674
C         8.31527599817006    8.19824746747609   13.10835282695987
H         7.60484635466789    7.50764508931378   13.53842645185490
C        12.78000620893375    7.95318535337508   13.21655173940564
H        12.61633483159667    8.42387115520170   14.17432135758041
C        11.20675481231323   10.13852211894134    7.43754885340347
H        11.21077772144252    9.23381521377614    6.84761069188851
C         8.26424865250611    8.48849175018789   11.75582558602447
H         7.50772906679274    8.03350768418981   11.13269539010428
C        18.20010827557971   10.29637819548635    8.55919967759498
H        18.71092007583254   10.31126359396083    7.60791027282479
C        18.22215414175589   11.41335027108728    9.37612236549329
H        18.74919012191396   12.30280005477901    9.06355805254736
C        17.51322731955956    9.16144697932399    8.95906395183304
H        17.48704254421086    8.29051349952671    8.32090726575407
C         8.93233396864222   14.09803404887900   12.58450414170324
H         7.86800390855353   14.23966138268697   12.70512191638358
C        11.22546688584861   12.53237028906405    7.57404259587265
H        11.24541955332983   13.49824092014475    7.09111902785517
C         9.80766219267289   15.13249222823151   12.87427773769793
H         9.42478366824215   16.07999578884632   13.22462785504313
C        15.28780042301594   11.15693533695218    5.49156299943596
H        14.64058242172316   11.72922046083227    4.82747971454923
H        15.12655395897059   10.09818972985406    5.30725370345515
H        16.31985794635904   11.40131938216478    5.24125720292934
C        11.21997711732604   11.37579319535545    6.81382764013541
H        11.23397068707611   11.43657875462661    5.73576935651497
C        12.12240450234493    3.80415676065459   12.89117409365866
H        11.95054817593673    2.73974941679750   12.82162713299912
C        12.53169954623289    4.51006573331718   11.79474177906808
H        12.68805958985827    4.01377410543753   10.84723097097069
C        11.92142306427107    4.45592353264955   14.11744121675366
H        11.59756844660712    3.88343570667360   14.97464002878080

