85
CSD_code = CAMTAO | q = 0 | S = 0 | Stoichiometry = C39H40IIrN4 | MND = 6
Ir        5.28390013064724    4.41647144869942    5.09298793848499
I         5.54598878683432    6.62823532088615    6.56757693016239
N         4.99049376792010    6.42033210828593    2.85832737008924
C         5.63317855859182    2.56285062042640    4.07839693189903
H         6.34671301032374    2.69707885456632    3.26840117357989
N         7.07881273280758    5.88653571717973    3.19561788582612
C         5.80461439938158    5.60000390758078    3.57275707684859
C         5.47469110019696    3.11025413509068    6.82727567165417
H         5.95892168116574    3.67478352074657    7.62185724726443
C         4.12954781416510    3.31950332284131    6.61295871876225
H         3.62923554113884    4.06744648765710    7.22391732813663
C         3.55996149728086    6.51276509157620    3.01210882795812
H         3.28834468648238    5.94886568993707    3.91070120356247
H         3.30324554635390    7.56358391652924    3.16838639780847
N         8.75224503514323    9.19543463306563    0.05366933155094
C         8.95093935090733    4.32759523716936    2.80988180525330
H         9.21295581527472    4.86143679802996    1.89414067085628
H         8.25533111453924    3.53079029807969    2.53820339511751
C         4.32514474038548    3.00285385523262    3.82975166718404
H         4.12835690778104    3.40748186460780    2.83789659434049
N         6.07720448898442    9.88834691450890   -0.36599449882813
C         1.29667035725806    5.96107261236349    2.00310367198943
H         0.83692044630961    5.40563197975919    1.18270983203978
H         1.05441885211280    5.44002558931538    2.93181780485036
C         5.36651022797198    8.24056099444283    1.17667720467617
H         4.34730839013994    8.54671690658501    1.01185411089283
C        10.21288987120029    3.71384163297355    3.41489508918005
H        10.72356769546195    3.14135922508141    2.63755802193882
H        10.88636159009769    4.51226182945919    3.73316928893709
C         7.77320610987153    8.55315630060049    0.70793719870350
C         7.09215911555723    6.89015751950049    2.25583916724732
C         8.48441026066208   13.96589927649887   -4.18570348513972
H         8.21958657479377   14.75793003936410   -4.87183285596119
C         3.20836925570060    2.28708472181825    6.00578044355262
H         3.56948145944560    1.29020833061378    6.26462418825066
H         2.21595345998974    2.39297390224809    6.44882032652141
C         8.11742921380743    7.52994303772649    1.61211429725609
H         9.15776430092356    7.30178475008107    1.77227157184015
C         5.72952336011419    7.24043215526550    2.03818324311203
C         2.81125776717188    5.95482775680610    1.80029878929482
H         3.06227613847638    6.53699482613401    0.91189706560355
H         3.14311621822503    4.92908503068131    1.62400376768363
C        10.13980883313338   12.58797246406089   -3.08019409282916
C         8.25918029220088    5.29380190905027    3.77253657664032
H         8.94769651286699    6.09525699611390    4.05731199451881
H         7.94183377036818    4.76523976756789    4.67674713488715
C        11.80074890575856   11.22074809365519   -1.98199910616653
H        12.83608906546455   10.95695946691779   -1.82245620098794
C         7.43086756769885   13.29019065258742   -3.50364336205502
C         9.46831615826089   10.86441457627385   -1.49030594499243
C         6.71612294731962   11.57795865528507   -1.92061078476209
C         5.08498945622879   12.96160186017526   -3.03138950796581
H         4.05244484922849   13.23385294624686   -3.19482093904374
C         6.39925037990539    8.90883946768799    0.49169604069238
C         9.77927597318487   13.63023188479840   -3.98326488606910
H        10.57226658842998   14.14808170723410   -4.50404399510716
C         7.05157961240599   10.51641151584508   -0.99608760621858
C         0.70540539851973    7.36549877833324    2.04026929928459
H         1.05419060216257    7.91728708114183    2.90894476342977
H         0.97964405514077    7.91813479169188    1.14429299945448
H        -0.37949147412182    7.31369169648708    2.08909758497754
C         7.75491001750652   12.25109299765277   -2.60072426011935
C         9.11824061917291   11.89759073977826   -2.38754650223612
C         8.42042318536534   10.16149450953717   -0.78166385735250
C         6.08676329035183   13.62808396725761   -3.70327892197444
H         5.84494170602754   14.42312071632492   -4.39433830638935
C        10.80460310487060   10.53895667255751   -1.29827380606320
H        11.04489911237768    9.74718828482082   -0.60651203519517
C         6.22897509612945    1.86083532560323    6.44228482310653
H         7.29715316000891    2.05984380080954    6.55838736257794
H         5.97638857599619    1.05724535268898    7.14284489473366
C         5.39453582262090   11.94145458753437   -2.14365906870574
H         4.62054257609045   11.41278196893557   -1.61017683380803
C        11.47595761243126   12.23120030057552   -2.86102542687369
H        12.25257189421569   12.76235773058355   -3.39288091636355
C         5.95930317722854    1.40555262969385    4.99665634598550
H         5.13889298335866    0.68599637871226    4.97028111752050
H         6.84596317608464    0.88941567564682    4.62138298388959
C         3.08697551212149    2.43229544053696    4.47776791119510
H         2.25111222982135    3.09818770112159    4.24775766110429
H         2.85373146326202    1.46138950475262    4.02576003136180
C         9.92205783668945    2.79432287426875    4.59548529750873
H         9.52972442015781    3.35261424975660    5.44102423665589
H         9.19807687122899    2.03271442984566    4.31416873502622
H        10.83372969103165    2.29619168978657    4.91646015682043

