73
CSD_code = CAMTUI | q = 0 | S = 0 | Stoichiometry = C25H37NO9Pd | MND = 4
Pd        5.66150578635661    3.64909516155972    5.44648233976410
C         3.34885634816733    3.77340591256671    7.29313999652428
O         3.39252181443745    4.83942604554433    2.57235951080135
C         5.72726850321117    3.50423499373967    8.26452223516266
O         5.93737206415038    2.56570492776491    9.19901999827451
H         6.56361672281975    2.90317620941451    9.85776688233078
O         0.97222572446419    4.02955896858987    4.51735774432180
O         1.99113159782431    5.37291712358874    8.31603796704978
O         3.68290788744482    2.73873380583619    3.32920658891901
O         6.41242989753391    4.51641802517486    8.24887986365673
O         0.77720772888986    3.46581857451532    6.67211071351456
C         4.76080205267516    3.17598192269753    7.20841838482748
C         1.45564192781542    3.95670334890675    5.62587529332661
N         7.58843239915489    2.94079757470296    5.95615811372963
C         3.60337850449653    2.25921589536499    7.40151111794895
C         3.32233505531945    1.57512576019398    8.72363588221778
H         3.95622545872454    0.69661141481225    8.82441864557780
H         2.27940034357101    1.26098179480139    8.74902410134814
H         3.51244808956063    2.22910254294652    9.56644719350179
O         3.56220188843111    4.41895877384972    9.59318929734723
C         3.00319073917739    4.52277427052582    8.52313194791227
C         6.64712815540399    3.62567243146115    2.66295803310991
C         3.39725622363484    5.69713697908309    5.52363618821277
C         3.88657982063014    4.44088020068573    4.89896753475823
C         4.35617580094505    6.45876434370105    6.42222498918094
H         5.17117218013893    5.82050541805994    6.78698942864495
H         3.83605033377497    6.89217366169270    7.27437124486895
H         4.79386221446667    7.27156875430737    5.84275099320225
C         2.83235641143107    4.34169053293284    6.00254348117485
C         8.38764020372313    3.49070005323507    6.57392177268635
C         3.58154486552885    4.09380518179539    3.50148282782636
C         3.21253326744206    1.37041790843623    6.23678634693762
H         3.59238289063912    1.76556896968698    5.29413847405419
H         2.13107431616992    1.26785589528786    6.17195077066996
H         3.63929649701844    0.38060636389829    6.39605044856119
C         2.47001248373870    6.62909263328171    4.77282172212549
H         3.05338207468361    7.27132188439006    4.11656501988729
H         1.92227413567159    7.24958027576955    5.48135986053375
H         1.76370160075549    6.08037572253327    4.15983283296755
C         6.78203308911764    4.10391497016839    1.24799292311657
H         7.12237031953429    5.13596793091917    1.22598869722886
H         5.78905837440428    4.07414575558991    0.79821177247226
H         7.44458094038608    3.46673798744294    0.66909883839167
C        -0.56389656256791    3.05902018327804    6.42121960612835
H        -0.56922170881017    2.31895681558985    5.61135059693493
H        -1.14344862537000    3.92693558270229    6.08547741127108
C         1.58625552144835    6.16656078999138    9.42693701554963
H         2.47763994137415    6.57065196723996    9.92134789427480
H         1.06164253664246    5.52713462261540   10.14704910586516
C         9.38688145159322    4.14498405048180    7.35747418445772
H        10.04547929772311    4.72798375889351    6.71497318007396
H         9.96819236380801    3.41287346009985    7.91706278693432
H         8.86652806661041    4.81173092509544    8.04755589747478
O         6.50884093453442    4.41215096780392    3.57937052020319
C         6.70584446083660    2.13882513064161    2.88381534822563
H         7.74963102688783    1.86369828516793    3.04883362551486
H         6.33819295120746    1.59086834034420    2.02090255672818
H         6.13041668250102    1.87387107193316    3.78911471809838
C         3.18732786459841    2.20736427497970    2.10412462387193
H         3.83621916649334    1.36593625949365    1.84504400841735
H         3.25323815027273    2.98351683535093    1.33363851747273
C        -1.13037031132926    2.48117120838693    7.70482034710025
H        -2.16275780346043    2.18031163220476    7.55073407519670
H        -1.08786352803203    3.22558372138401    8.49500383615232
H        -0.54935977548810    1.61666110798725    8.01484206561247
C         0.68070590538665    7.27240533917229    8.91620871369245
H         0.32314484872239    7.87111900558331    9.74920144244515
H        -0.16896410336509    6.84206818203615    8.39317677641200
H         1.22250396837231    7.91252242947734    8.22492557702075
C         1.74416717000995    1.75256585419344    2.27339133085339
H         1.34288854076236    1.42244754485913    1.31912471237409
H         1.14992064353252    2.58250599140886    2.64852324283057
H         1.69055419158780    0.93444776005105    2.98781826420558

