73
CSD_code = CAMTIW | q = 0 | S = 0 | Stoichiometry = C30H32N2O8Pd | MND = 4
Pd        9.45759174131892    2.05720541751455    4.62158896349511
O         6.74279922665876    2.45785795423985    5.44462735441067
O         9.65740036879699   -2.62799065440374    6.48373939801877
O        11.84815207529406    0.66676934117221    4.16641918722371
O         6.17232538320178   -0.21300709777149    7.09777331912154
O         6.91926831114402   -2.05997706046980    6.07642558078411
C         8.38905369082976   -0.24224669245686    6.18712432308316
C         9.11960984964477   -0.87245385794164    5.03245279903129
O        11.19696442044848   -0.29187026840298    2.23068045241697
C         8.49129092087720   -0.79404170005356    3.62795576461528
C         7.05901923161878   -0.79941286055241    6.52092703786056
C        10.55997107002524    4.71439851986912    4.43974211861945
O        10.96435217840664   -2.36102622920704    4.68516561625004
O         7.22863581931927    2.76135314414770    7.61965914178159
C        10.72092461328552    0.29949366104312    7.28852570556240
H        11.12040252109820    0.51729359371091    6.29675505835704
H        11.03644447800572   -0.69583253860892    7.59525668806211
H        11.13986023187433    1.01782020544595    7.99356680188954
C         8.57159232206994    1.27780213713227    6.26993311513777
C        10.92067599001363    0.06912026005798    3.34994546476117
C         9.20947709310431    0.42404712831247    7.30862604748302
N        10.03142515120542    3.02041813762415    2.84122609251679
C         9.59619302970581    0.13700501697456    3.98361792301445
C        10.01022531347556   -2.01369131699758    5.34293733709097
N         9.88977500846735    3.98663646148426    5.35284950392545
C         7.10160123976601   -0.20762062526808    3.47411083209047
H         7.00623179510970    0.72714672804247    4.02893206953712
H         6.34068217137209   -0.90832510766466    3.81143353551436
H         6.92445461945507   -0.00183667621328    2.41832395596050
C         7.45241629262337    2.18540858979174    6.58051081991558
C         8.65760342967969    0.36942533265569    8.71812947038007
H         9.07747926427601    1.18142170495544    9.30866348625939
H         8.93010541206493   -0.57789955823556    9.18237111974492
H         7.57838733207305    0.47387083464272    8.72707114189886
C        13.39056333507160    2.17348244176289    3.20267921749582
C        10.61430251701878    5.16001444859528    1.96268167657032
H        10.88254233100170    6.19055858923493    2.13495148450626
C         8.72880900781495   -1.94986144999143    2.67850643479340
H         8.00037646070361   -2.73705693441915    2.87026956519261
H         9.72883393343059   -2.35513288488452    2.78666187932261
H         8.61449397490721   -1.61103738097019    1.65060086543712
C         5.61926108663748    3.30386680804967    5.61961959899451
H         4.91636999630958    2.84619518119140    6.31910391556204
H         5.16280921165620    3.41978142357261    4.63934934662572
H         5.92984619890551    4.27430418234266    6.01563125319089
C        10.40457657496141    4.29591622757726    3.03579502422367
C        10.77679491206848    5.36202922268206    7.08439492604809
H        10.83166771443730    5.58480977081641    8.13766505216746
C        13.16651489295245    0.80975883655898    3.64417284246205
H        13.28739771832586    0.11990154995768    2.79770923706204
H        13.86384632951042    0.55126066298822    4.44802425484236
C        10.00017366537758    4.30342038941847    6.63958582710947
H         9.42545616854629    3.70798406010527    7.33907055624473
C         9.86182297795031    2.57101229950279    1.60397238327556
H         9.56981948117630    1.53289504147031    1.49979626544964
C         5.67150868162070   -2.67387127635517    6.34864011819643
H         5.54566519559440   -2.82152014482498    7.42352637556857
H         5.68252619708773   -3.63141274446941    5.83359866798026
H         4.85106427126733   -2.04969110789998    5.98579701449202
C        11.47342473815774    6.11824606835751    6.15449244437469
H        12.09369304240336    6.94535448744801    6.46494924908329
C        10.45177713317739    4.68687174788697    0.67276226545038
H        10.61469495829849    5.33855089409976   -0.17249593259880
C        11.36220548887371    5.78971753953429    4.81508743566624
H        11.90880562764068    6.34865628748014    4.07252134406520
C        10.45648810554116   -3.73591722535454    6.86054463422541
H        10.34275495210700   -4.55005809148919    6.14133692136685
H        10.10630367292689   -4.04594911996781    7.84210622948675
H        11.51104811757656   -3.45166714671183    6.89899524736425
C        10.06960488485244    3.36694657112929    0.48857168995914
H         9.93288861370936    2.95894559325930   -0.49960336216334
C        13.49091283306298    3.31542805553769    2.85766176015124
H        13.63416340104837    4.30380520221428    2.53679906493819

