53
CSD_code = CAMVIV | q = 0 | S = 0 | Stoichiometry = C12H36CrP4 | MND = 8
Cr        1.05340308165990    2.73018800896203    2.47904205544429
P         1.90558233539581    4.81595963546158    2.98965497658671
C         1.40956065513966    5.66746762631735    4.53766493101943
C         3.69022716986331    5.25451946274289    2.96725631975584
C         1.31241868413929    6.02681514293949    1.71726613847633
P        -0.27618658824075    3.89865203998228    0.99482880747275
C        -2.10901425625052    3.78717579847183    0.91733830797243
C         0.09930358707386    3.87937737853381   -0.80130123811931
C        -0.12909383909031    5.70916395374082    1.36507680232392
P        -0.24000523926505    0.90411286527463    3.05228666180384
C        -1.59521853305436    0.21324882622700    2.02083776530698
C        -1.04554446486776    0.81782589552319    4.69881412745688
C         0.84679326334175   -0.59651771730914    3.11377580032255
P         2.82491287012926    1.30319199690194    2.88175074180631
C         3.75219619510691    0.55754684457254    1.48474114568398
C         4.22861512631170    1.66633000833207    4.01109213426244
C         2.18185242504784   -0.21631811401577    3.72694251086230
H         2.09597792224019    3.22361845771648    1.34643751347804
H         0.97090809984863    1.67304989864895    1.25886367794502
H        -0.16817112500951    3.46068773371118    3.24552732958999
H         1.31626382675228    2.56445523259691    4.06547678226730
H         1.79626328826891    6.68711824387043    4.57282150555436
H         0.32199897931780    5.66726552281656    4.60188918263824
H         1.80404293327992    5.08782024965091    5.37278413155699
H         3.82783913120051    6.33711845342005    2.96487137902922
H         4.16110397242380    4.82480234718188    3.85166035224069
H         4.13706259562857    4.81571677768671    2.07563871217725
H         1.42919183010488    7.05420256123830    2.08301743767661
H         1.95372076887392    5.88284072635028    0.84040066402606
H        -2.37625658595287    2.84234901265483    0.44357020132860
H        -2.52846039559477    4.61776775879611    0.34713954189333
H        -2.49380158612541    3.79723458683350    1.93666736339864
H        -0.05800025443613    2.86150475864062   -1.15937202703099
H        -0.54033360359656    4.57297345666654   -1.34923975731267
H         1.14929784988232    4.13462807173920   -0.94014688192490
H        -0.48504143446520    6.30373643373957    0.51494583431497
H        -0.77663373349907    5.89492957629361    2.22940959218276
H        -1.86678388153756   -0.79059169069224    2.35175841068945
H        -2.45876447538539    0.87398118729205    2.10009799417686
H        -1.25671421127883    0.19021449257447    0.98542277833060
H        -1.51387880042829   -0.15392752406465    4.86253195343995
H        -1.79631177443231    1.60758424455566    4.73950570450101
H        -0.29570974181111    1.01604319258807    5.46391214243747
H         0.35399425306417   -1.40326403936116    3.66987144750246
H         0.98731246890380   -0.91126585399741    2.07354476586727
H         4.47191640040376   -0.18386474852213    1.83512662928772
H         3.03962626916286    0.10482516410045    0.79610517084621
H         4.26860482480065    1.36485824378038    0.96456202321652
H         3.82742584482190    2.11801947949805    4.91785329187157
H         4.89024117992785    2.37945798830083    3.51889256216687
H         4.78112726186739    0.75726631965877    4.25458388215729
H         2.91277496250426   -1.03111108901331    3.65766616108059
H         2.04746446787454    0.05691512030178    4.77963455877135

