57
CSD_code = CAMVER | q = 0 | S = 0 | Stoichiometry = C14H38CrP4 | MND = 6
Cr        0.00001074523690    0.00001243446435   -0.00001834256642
P         0.66616286406720    1.90189193669731   -1.08204292562998
P         0.79417658912290    1.07041099408796    1.86171679172775
C        -0.37070787911497    2.89313829548612   -2.24317187246507
C         2.23908972638654    1.98834272489524   -2.04041356057233
C         1.02060579003046    3.22161548826678    0.17718356926332
C        -0.33105179967052    1.85401030815650    3.09490747635455
C         2.00958673566090    0.37736067608230    3.06576401483210
C         1.75021808064966    2.57726574629842    1.34070672942751
C        -1.97031853363213    0.89226808362147    0.31456731946446
H        -0.37029978083300    2.40250928704873   -3.21637089916058
H        -1.39192061716268    2.93165051556188   -1.87112372441389
H         0.02501860440198    3.90464035333133   -2.34539054512145
H         2.43992359889659    3.01021110350789   -2.36485122208417
H         2.15162487614351    1.33880637193557   -2.91104531990909
H         3.05602198555612    1.62601013723714   -1.42019268738837
H         1.59626326938719    4.04058095386936   -0.26839413345594
H         0.05264693232363    3.60999886813074    0.50985431543253
H        -0.90979787290983    1.07044252685342    3.58362198603891
H        -1.01805866278628    2.52116691117243    2.57896501375774
H         0.23837514277412    2.40838023076039    3.84200926529143
H         2.46910067325071    1.17641669486937    3.64933959472867
H         2.77705197846354   -0.17445430598332    2.52816534674659
H         1.48878043265537   -0.30811875314606    3.73373167195954
H         1.87591734551947    3.26761743832139    2.18222281265932
H         2.73729827833093    2.23036524230846    1.01823435981416
H        -2.03129997683517    1.97313287677086    0.11714550241336
H        -2.78111285494456    0.44712011047044   -0.28122404618023
H        -2.29499388052984    0.77844388544110    1.35743043276791
P        -0.66637024630823   -1.90173767474100    1.08205379992919
P        -0.79393467710071   -1.07051110311377   -1.86170324251848
C         1.97034288864344   -0.89223148888182   -0.31459229110708
C         0.37028010741967   -2.89294958201915    2.24340504406462
C        -2.23943034101523   -1.98813061233134    2.04021590979452
C        -1.02073208149307   -3.22157285546527   -0.17708183064404
C         0.33136218531373   -1.85431618642372   -3.09470321553154
C        -2.00911879129750   -0.37752001395011   -3.06600937304600
C        -1.75014235121988   -2.57728945150578   -1.34077398767239
H         2.03128635103431   -1.97309882122091   -0.11715931399415
H         2.78115791244905   -0.44710176966613    0.28118193457538
H         2.29501115780545   -0.77840213103389   -1.35745693493570
H         0.36977551581067   -2.40221805133287    3.21655326430670
H         1.39153421951200   -2.93151667483219    1.87147459153593
H        -0.02547809934132   -3.90443386759606    2.34569023057942
H        -2.44032678377503   -3.00997034442356    2.36471176487936
H        -2.15209928973525   -1.33852405389711    2.91080646569848
H        -3.05627231044649   -1.62584337671958    1.41984980179945
H        -1.59650502199539   -4.04046767436241    0.26847944763010
H        -0.05274929685639   -3.61004950482140   -0.50957033225781
H         0.91023994933803   -1.07085061147016   -3.58342112908785
H         1.01825159531173   -2.52147417552587   -2.57860776990946
H        -0.23800624435755   -2.40871996860688   -3.84182790709044
H        -2.46861699534771   -1.17656853498702   -3.64961076492766
H        -2.77660969415198    0.17439508927521   -2.52854959361681
H        -1.48816105532426    0.30788026492302   -3.73394110863666
H        -1.87574669852878   -3.26770510535398   -2.18225491640036
H        -2.73725369477960   -2.23030885643508   -1.01848546714753

