94
CSD_code = CAMZEX | q = 0 | S = 0 | Stoichiometry = C37H47FN6Si2Ti | MND = 5
Ti       22.93232481062386   25.01826808387924   14.18772890031372
N        21.69883455450341   23.67515130502027   14.85968410614213
N        20.32446530494701   23.95360764866647   14.76480047665152
N        24.28878897688671   24.09879668762373   14.99041240629077
N        22.80941923995207   24.75120747916257   12.31781621725458
N        21.96822406134860   26.50937806908093   14.90077301508804
N        24.23950743594820   26.57775858766890   13.69722047354832
Si       23.94252005281622   23.74220756034769   11.51608547398158
Si       22.33392580093514   27.41157854954665   16.30901578311253
C        24.40556512935902   22.94352257154532   15.50505315131069
C        23.25675487060112   22.11879404027733   15.83950137450640
C        21.99251443688329   22.54083624524451   15.49849624429320
C        25.79770381250236   22.38859333931281   15.76206630497155
C        23.38771025684797   20.83339477787503   16.53628082534538
C        24.11439235273537   20.71935274689990   17.72128979789628
C        24.20162704487111   19.49483051267280   18.34942647637429
C        23.58694246818850   18.35954381546725   17.85457391160645
C        22.85453039761757   18.47679345798380   16.68484385922731
C        22.75619539977776   19.69248071550144   16.03533655642973
C        19.58020782454306   24.05529196700361   15.93523787678999
C        20.21798243419826   24.40798067637427   17.12852988306552
C        19.49986343615833   24.48954220941382   18.30451149957564
C        18.14041464595682   24.22012767806724   18.32281626772273
C        17.50760985978028   23.85002858791673   17.14744236283530
C        18.21456028384056   23.75737678814263   15.96447715489928
C        19.77672785207724   24.00114127132261   13.48842364253800
C        20.31371204643829   23.20154769139913   12.47321771032835
C        19.80382967802631   23.27155878279357   11.19087153728685
C        18.75473609712484   24.12729125752557   10.89318177612262
C        18.21445945067484   24.91823027901715   11.89604152900864
C        18.71842680022710   24.86594731363943   13.18100667745020
C        22.21847419537611   25.88554283235810   11.67926494355197
C        21.38424939089531   27.15467523947391   13.76798410294380
C        22.28585165048826   27.22812924313475   12.47895353333086
C        21.69790598468318   28.31688705804098   11.57453448843290
C        23.70386889705503   27.49152260589761   12.87979149000556
C        24.44458776493263   28.60282116875025   12.47179640692045
C        25.73904701686855   28.76383330092798   12.92693849027335
C        26.26985126210372   27.81804164762115   13.79711263160644
C        25.47959893886895   26.74202395922432   14.15057065534278
C        25.77117405172749   24.27058786056156   11.81588890243728
C        23.75390619851538   21.94428597998561   12.14550434434673
C        23.66333927429722   23.75283884956161    9.61668713625346
C        23.27947723609173   29.05966604923924   15.96672675386769
C        23.44567353069326   26.30151641765164   17.39925908602429
C        20.74164951846058   27.94794735097993   17.24051361566706
F        24.91089395794122   19.40486429313889   19.50074909729609
H        21.14817578166254   21.92092401011510   15.81481126385383
H        25.81325720654400   21.30546310180164   15.67796273526973
H        26.13727512136813   22.66790414628552   16.75827446006629
H        26.48697509689786   22.82050465079801   15.03828394338130
H        24.58863513353946   21.57943197844408   18.16532430528708
H        23.68098401336160   17.42097301056039   18.37654049868811
H        22.36212342301834   17.60661194171193   16.27664374749954
H        22.19504177945065   19.76557819215883   15.11541541256927
H        21.27744127097136   24.62349478397018   17.11119256599064
H        20.00625596378712   24.77061624501653   19.21637720118356
H        17.58196705309473   24.28852947956948   19.24379747298443
H        16.45251870660564   23.61756657388263   17.15260834006590
H        17.71330150469304   23.43684435930759   15.06346857559705
H        21.11956659507076   22.52095305447743   12.70494555580378
H        20.22368039743611   22.64425169496652   10.41828086154099
H        18.35792700203910   24.17699344050548    9.89045053178258
H        17.39843808697543   25.59046332971016   11.67225163902287
H        18.30108855988661   25.49578359763740   13.95366208750890
H        22.68462283258044   26.07976571772782   10.70022565261241
H        21.14680604662541   25.69568865948112   11.48592116373281
H        21.10213137736515   28.19149282231213   14.00876209031604
H        20.45870316633795   26.63606628399991   13.46363170498433
H        21.71843296043986   29.28914813036522   12.06311382558326
H        22.23795045806996   28.38127030403654   10.63171917369189
H        20.66073106793359   28.07441287994928   11.35057486428616
H        24.01887132897735   29.33405031178695   11.80469068701577
H        26.32498774785855   29.61576671527338   12.61491728925515
H        27.27205812073129   27.91825567090621   14.18291425609259
H        25.83141451071493   25.96410055989752   14.82262637308434
H        26.47132178854254   23.62812323687265   11.29075613016294
H        25.98997329146678   24.21006330418603   12.87979151350748
H        25.96020217181312   25.29253425204248   11.49324444387299
H        22.96476357192117   21.40570427218196   11.63007087237145
H        24.67489527320990   21.39254178720550   11.98836411045978
H        23.54071235277710   21.93581695581477   13.21150221726560
H        24.18598798822543   22.92934655546653    9.14304532565828
H        24.02758789534283   24.66963732497657    9.16357925405542
H        22.61010920852402   23.66082030577290    9.37230871846350
H        23.29733071089980   29.69262974951762   16.84817883769697
H        24.30960933962836   28.88649301421315   15.66638250835334
H        22.80037064299956   29.62775422229893   15.17326220482338
H        22.93173342019360   25.98377564477977   18.30033348720823
H        24.34060921164162   26.83043043821598   17.71221888265655
H        23.75042301395479   25.41275961246905   16.84121808909222
H        20.98008865292858   28.36718373831988   18.21250214751467
H        20.20188758369266   28.70842930680793   16.68348096748956
H        20.06460588279098   27.11370607923483   17.39583306033399

