71
CSD_code = CANBID | q = 0 | S = 0 | Stoichiometry = C28H36Cl2N4Ni | MND = 6
Ni        2.89580076851543    2.89565522686716    2.68638793924303
Cl        2.89545112336462    2.89594195800645    0.58881417495113
N         1.30442952964774    4.48668867276101    2.68619662428863
C         1.35383791950667    5.49181687860754    1.82261174165180
H         2.17929102241520    5.48574015338754    1.12335182243805
C         0.40138163398111    6.50352366168275    1.77893515571756
C        -0.64705338368203    6.43892574796621    2.68663544174821
H        -1.41216739359274    7.20433304950729    2.68679401993330
C         0.52471638091531    7.62616569293737    0.79724004134038
H        -0.45254408358274    8.03477072935347    0.54962189144557
H         1.01128998999037    7.28523828378491   -0.11334815464643
H         1.12946553676783    8.42775177937551    1.22309072048980
Cl        2.89557310643715    2.89589203589732    4.78400592488683
N         1.30318314268914    1.30294970388358    2.68665717960036
N         4.48831818565352    4.48839091157819    2.68673640551286
N         4.48676359574163    1.30429723648442    2.68677683853294
C         0.29945125715562    4.43745968325650    3.54996597346240
C         0.29828182297293    1.35204908187075    1.82283238464359
C         1.35232309627729    0.29823941737449    3.55069721835361
C         5.49332211288062    4.43923265030708    1.82303461660547
C         4.43900064972145    5.49324399599563    3.55060370108207
C         5.49185492820312    1.35367137606675    3.55039526305302
C         4.43753682115532    0.29936467236273    1.82295756230618
H         0.30540086317961    3.61191046346643    4.24912059384318
H         0.30453527088549    2.17735173449976    1.12338068708131
H         2.17783690400382    0.30446435590280    4.24989354479146
H         5.48719427779328    3.61384247366125    1.12368020038396
H         3.61344117938350    5.48704177973726    4.24975014727565
H         5.48580086688973    2.17914306952508    4.24963372007615
H         3.61197993012842    0.30533630086312    1.12382064189100
C        -0.71187413399230    5.39030464211382    3.59409543127991
C        -0.71337617929213    0.39955159524988    1.77919782078826
C         0.39965299823624   -0.71323775432384    3.59481320617220
C         6.50486773226559    5.39184414612970    1.77930617812738
C         5.39158153017131    6.50480822551015    3.59465156851436
C         6.50352479452729    0.40118231544587    3.59409159740708
C         5.39033730774231   -0.71199154367449    1.77885202483722
C        -0.64880523399550   -0.64869619692458    2.68712927135723
C         6.44011377291603    6.44023384247675    2.68705530172269
C         6.43891522435089   -0.64723561162708    2.68637704820809
H        -1.41414650084154   -1.41387511581840    2.68732958478748
H         7.20537964948014    7.20548822741564    2.68719494919297
H         7.20430865946315   -1.41236072816719    2.68620468235644
C        -1.83432641607286    5.26714220683463    4.57602694328117
C         0.52287881003353   -1.83550712379956    4.57693918510780
C        -1.83590860430460    0.52275349203173    0.79736766764113
C         5.26819543277634    7.62720361822296    4.57661324731204
C         7.62746462343193    5.26861942526166    0.79755228549675
C         5.26714184541894   -1.83444985462799    0.79693237876654
C         7.62610196193373    0.52447179906769    4.57585353928584
H        -2.24277439981546    6.24444611376257    4.82368793693285
H        -0.45438223640235   -2.24408557011694    4.82456095230261
H        -2.24446842850685   -0.45452154002676    0.54978498601740
H         6.24541038324660    8.03585479539351    4.82429782195268
H         8.03597156106238    6.24589780268138    0.54988282601384
H         6.24444081205500   -2.24283842478799    0.54918231469029
H         8.03476632863192   -0.45279789534131    4.82335010407504
H        -1.49325352958593    4.78058120852347    5.48656185791656
H         1.00928490072424   -1.49417997991969    5.48746868119045
H        -1.49487164725993    1.00925663961322   -0.11321398747892
H         4.78169396583948    7.28598086556487    5.48713127212134
H         7.28651471635650    4.78198762155197   -0.11299694771454
H         4.78047014388888   -1.49342372681387   -0.11355561291172
H         7.28505669255600    1.01087485455193    5.48649351244565
H        -2.63606956675323    4.66245200389098    4.15040244650687
H         1.12778063613334   -2.63720026319877    4.15151154982774
H        -2.63754806277103    1.12753882356848    1.22305794153669
H         4.66331849006820    8.42881588628148    4.15100171972574
H         8.42912123519268    4.66393837198130    1.22335906483062
H         4.66255355214395   -2.63622395402560    1.22262671624938
H         8.42766012355118    1.12936398309784    4.15014691014519

