43
CSD_code = CANFOO | q = 0 | S = 0 | Stoichiometry = C20H16BrN3NiO2 | MND = 4
Ni        7.24238978290292    1.34141237178259    6.72790172114811
Br       14.44906223902817    1.26849636501559    8.12911597404889
N         7.98062413728281    2.03642235520766    8.26839569573423
N         7.03723678036563    2.55316244245958    9.10598811549587
N         6.34195055769539    0.64262567220775    5.14942858100666
O         8.84324435968291    0.84838053960166    6.05625847145369
O         5.62692780112138    1.87784764929106    7.46696013431854
C        10.02579548013746    0.96745855889082    6.56376848651149
C        11.11576723203907    0.46942077826301    5.81042371317559
H        10.89177372757776    0.01261689336466    4.85848846769197
C        12.40574102277097    0.55334834269176    6.25891711381227
H        13.22317026395267    0.16684684911708    5.66963433142249
C        12.65078444887250    1.14791649207962    7.49516033732334
C        11.63162811256528    1.64628713745946    8.26433043771271
H        11.86645352604852    2.09656725966469    9.21463460354230
C        10.29784627185341    1.57387507822928    7.82834056478042
C         9.23577990390340    2.10007789655082    8.64229943854647
C         5.83251174968570    2.43144986557245    8.61491688421763
C         4.68630271898593    2.93070626997478    9.38848525886086
C         3.40470949401425    2.83824219100576    8.85081179945645
H         3.28193116606616    2.40477617619565    7.86941402067187
C         2.31635034414473    3.29926487460500    9.56617764075231
H         1.32392095777981    3.22598043231199    9.14538923435089
C         2.49713348173477    3.85573322283426   10.82207501032557
H         1.64571346622902    4.21593762922733   11.38095912648160
C         3.77093868507149    3.95098348895187   11.36128013854635
H         3.90948379844686    4.38576217441769   12.34042766360499
C         4.86333661123779    3.49173139666594   10.65122709524234
H         5.85952478115281    3.55810768712761   11.05803802357483
C         9.56693251778610    2.74042836647831    9.95907186826415
H        10.23610578911079    3.58553006433983    9.81033331349845
H        10.04963478088908    2.02084271871208   10.61751804987902
H         8.64736072316280    3.08739672368831   10.42042237486910
C         5.20475737572191   -0.04686253095107    5.26010934366896
H         4.82507063035079   -0.20195289253609    6.26196225266721
C         4.51987608580487   -0.53897742825059    4.16208740394038
H         3.60485166222603   -1.09221988446629    4.30335005651514
C         5.02720451654314   -0.30889204347806    2.89351696340713
H         4.51590287460746   -0.67771386320717    2.01707479318511
C         6.20838199807173    0.40601371652691    2.77950653209836
H         6.64399001984586    0.61066488414135    1.81430260215294
C         6.83253275160088    0.86065066039371    3.92869143008204
H         7.76396537192952    1.40865341784134    3.87200493196178

