45
CSD_code = CANWEU | q = 0 | S = 0 | Stoichiometry = C21H19Cl3OTi | MND = 8
Ti        2.67498866759382    5.53889471182650    8.24647032834907
Cl        4.74877555482882    5.88289206528928    7.82576901998370
Cl        1.96435139246307    7.31983638848498    7.23699726486826
Cl        2.52930630234632    6.33071582048863   10.24575521030912
O         4.87179630923341    2.56009005563195    8.02495953442354
C         2.64416943065229    3.29338670271485    8.28252744235581
C         1.45925113410270    3.70905368935288    8.96690870554084
C         0.65106423428168    4.39914537669753    8.03438986383707
H        -0.34760543270909    4.77270827684569    8.22704522712046
C         1.30216660557904    4.38712832589229    6.78035742032809
H         0.88995325436352    4.75755959754890    5.84948968104043
C         2.53509443786048    3.70689213172077    6.91492520451318
C         1.01962161744211    3.36373588071385   10.35944816906437
H         0.03296237312067    3.78724072550177   10.54280519386782
H         1.70394522198509    3.75112641233556   11.11398749206713
H         0.96104505684178    2.28017387949039   10.47564698661615
C         3.45216069397511    3.41582263230721    5.76245537987485
H         3.47291998199733    2.34567737476704    5.55439360887948
H         4.47240132277081    3.72833392021803    5.97990287702044
H         3.09776502782768    3.93819159738845    4.87347814145812
C         3.73540360873224    2.41757025057532    8.86359855411704
C         4.03726886261119    2.75754337605929   10.31608342552565
C         4.60140682943878    3.91223018922758   10.81479898615464
H         4.90622958213941    4.71456782245562   10.15228907592227
C         4.79409923813974    4.00597772397851   12.18893357389719
H         5.22684120424648    4.90352266452471   12.60369929229174
C         4.43841424085847    2.96212445442433   13.02930811468770
H         4.59294896172705    3.06037124363061   14.09366715629736
C         3.89953698952634    1.78820053660495   12.52346744060026
H         3.64136895248414    0.97282556011379   13.18212950584426
C         3.70539620128304    1.68606441801957   11.15669336841614
C         3.18713047297043    0.59642018068861   10.33879807997704
C         2.28932474433547   -1.51211486473041    9.68556322868466
H         1.92527329896530   -2.49612854292585    9.94181374960628
C         2.72228694892291   -0.65944756933934   10.68983740293720
H         2.69627535930705   -0.96915344413066   11.72363333331338
C         2.31608332941403   -1.11832827952819    8.35719198033090
H         1.97430376570015   -1.79826477258430    7.59122377259020
C         2.77544167405927    0.14333927186198    7.99876284526145
H         2.79171415993584    0.45191214265516    6.96472641588010
C         3.21303252966051    0.98980282495716    8.99277068071880
C         5.98830369605794    1.79167807130318    8.40562213102248
H         6.35273138770821    2.07088851269451    9.39989311295097
H         6.75808613568837    2.00330260354162    7.66635342088908
H         5.75816463953396    0.71999006070703    8.39872860056607

