35
CSD_code = CAPDIG | q = 0 | S = 0 | Stoichiometry = C12H14N4O4Zn | MND = 6
Zn       -1.41316517012610    3.32500903396922    3.47340405826813
O         0.63320464450700    3.81283340723913    3.37818152458164
N         0.53621423220780    4.66995702084267    4.27325339687610
O        -0.57884358505110    4.77261419996957    4.79081280687333
N        -1.39589394070139    1.91646577576818    5.12524049767515
C        -0.42001554934278    1.04694844650487    5.39028945897099
C         0.52741235291605    0.70852751173342    4.29026936316318
H        -0.00464956798859    0.22296277014517    3.47372880666711
H         0.97108885637316    1.61855297823640    3.89083397551929
H         1.31578105857119    0.04994558922467    4.64337359234782
C        -0.29705783937493    0.46826851448622    6.65084374221387
H         0.50465776277511   -0.22821147700406    6.84241039711279
C        -1.20026941833030    0.79549415663781    7.64539788273886
H        -1.11438128654257    0.35998449761167    8.62983301539854
C        -2.21562298217347    1.69216914554490    7.35032919043088
H        -2.94551564253871    1.97705264272283    8.09036158536461
C        -2.26894651426523    2.22786651719154    6.07731691636784
H        -3.03577855121370    2.93473123518152    5.79651106745689
O        -3.45966858862331    3.81303342672682    3.56888287978137
O        -2.24703807020557    4.77233535975641    2.15646379981110
N        -1.43078482749135    1.91628386582963    1.82187946364660
N        -3.36229038726982    4.66964745495211    2.67343011731786
C        -2.40663999279794    1.04677038280117    1.55670494047362
C        -0.55772207504587    2.22782679832537    0.86985453725451
C        -3.35416598467879    0.70824723472638    2.65660888723924
C        -2.52950079815005    0.46818997812814    0.29609498054447
C        -0.61095392606165    1.69222554425439   -0.40319675614704
H         0.20896748002569    2.93482332914755    1.15070817930938
H        -2.82219502968549    0.22268265774047    3.47320769473549
H        -3.79795695418771    1.61822157337110    3.05603148076405
H        -4.14244515658564    0.04963241873597    2.30336903371397
H        -3.33118527330528   -0.22829359549576    0.10441330746822
C        -1.62623094478842    0.79550624779421   -0.69837274273237
H         0.11897034474084    1.97721063040336   -1.14315648391230
H        -1.71197867559032    0.35998472680179   -1.68281459729414

