71
CSD_code = CAPMOW | q = 0 | S = 0 | Stoichiometry = C30H30N6NiO2S2 | MND = 4
Ni        5.90381025953246    2.63571045586527   13.26058452630867
C         7.83333131398366    6.19370489250856   14.00928740600373
H         8.06361151720291    5.93931906438214   15.03271371060289
C         7.86772215773273    7.51075690366585   13.59414619409791
H         8.14939989784003    8.28148249743202   14.29620890696683
C         7.53483527009987    7.84688502462270   12.29327285098843
H         7.56286038460233    8.87869299104963   11.97644656618034
C         7.15603210116193    6.85672128135541   11.40077045656770
H         6.89008127227004    7.11493839047476   10.38615975610704
C         7.11484045045069    5.53918533971196   11.80580863489553
H         6.81343098531129    4.75256731617345   11.12452917126326
C         7.46118757291387    5.19322712579196   13.11300468704948
N         7.37279488444841    3.85101737811980   13.48538275150425
C         8.34858211115688    3.23537383904027   14.13530070542521
N         8.20443682528073    1.97009384671313   14.49032769128977
N         6.99666492088961    1.48753586012148   14.24051676483045
C         6.84215734528360    0.14547991457533   14.55754317988779
C         7.93311591757460   -0.73125069988929   14.61186803899036
H         8.92547650549595   -0.33644718037343   14.46167953692979
C         7.73127569380046   -2.07540802397228   14.80744163606221
H         8.56146379261104   -2.76462200771688   14.82550639825246
C         6.44019462623193   -2.58937960450747   14.96079999791979
C         5.35849826853545   -1.71127824744415   14.98732486995911
H         4.35525368974275   -2.07203811709225   15.14756738434939
C         5.56357589692952   -0.36119033205465   14.80059435030291
H         4.72740179060571    0.32669754047847   14.82416916091214
O         6.35037342521568   -3.94223773814124   15.06635876813441
C         5.07126867907099   -4.53137552730476   15.09079869383941
H         4.50878996998975   -4.23650230069654   15.98212247355785
H         5.24362776926438   -5.60621745720272   15.11562667557036
H         4.49941561411353   -4.27511424832764   14.19365477807733
S         9.89919003969909    3.98965090498802   14.50041918514544
C        10.84889081222988    2.52544577285120   15.00050985450737
H        10.34999097091651    2.04518181932543   15.83500884308144
H        11.83001470604438    2.88710975416596   15.29103519771832
H        10.92755541543607    1.84479238083479   14.15919738049871
C         3.97432702512286    6.19378679090622   12.51216628501120
H         3.74400494460870    5.93950053199494   11.48872580144882
C         3.93985061584928    7.51078660928128   12.92747225185385
H         3.65812046299044    8.28158255921815   12.22550788523217
C         4.27264899774326    7.84676705671584   14.22840671765412
H         4.24462044645005    8.87854010615724   14.54534295738394
C         4.65150894807235    6.85651825827511   15.12078924268606
H         4.91747596169076    7.11462685296388   16.13542189245331
C         4.69277136899061    5.53903551111632   14.71559037018158
H         4.99422821426681    4.75234576324305   15.39676675817953
C         4.34645618590907    5.19321903089826   13.40835130115019
N         4.43483699214726    3.85103943033051   13.03586141820533
C         3.45901603223947    3.23544083257691   12.38593704493984
N         3.60315056044490    1.97017161147763   12.03083510649427
N         4.81089631206373    1.48756036860612   12.28078336143777
C         4.96545065753663    0.14547438418736   11.96383128092107
C         3.87445220282870   -0.73118432076898   11.90899393651169
H         2.88221064578355   -0.33653141540599   12.06009630065615
C         4.07632566142860   -2.07536098657772   11.71361597703093
H         3.24624072414694   -2.76470627348633   11.69652219537631
C         5.36748520943380   -2.58941719937221   11.56090960119982
C         6.44918347220642   -1.71133645505915   11.53445784270953
H         7.45235707327611   -2.07203975070189   11.37376619630229
C         6.24408171942977   -0.36123347200807   11.72111282922722
H         7.08014916287029    0.32674920215998   11.69684627230638
O         5.45729038571571   -3.94227159050462   11.45525821376582
C         6.73637407624135   -4.53143474302567   11.43091975507614
H         7.29889652799751   -4.23660580345751   10.53962004867715
H         6.56398405652110   -5.60626092727778   11.40617130602717
H         7.30817122123876   -4.27513337653235   12.32807395508897
S         1.90846253317472    3.98988711289702   12.02092354252251
C         0.95869550518737    2.52564739789993   11.52104546681887
H         1.45724583949787    2.04538945772823   10.68633597853595
H        -0.02246668981154    2.88742271861499   11.23083467826086
H         0.88014409306184    1.84491591737993   12.36231904487281

