54
CSD_code = CAPMIQ | q = 0 | S = 0 | Stoichiometry = C19H22BN7O2S2Zn | MND = 4
Zn        4.94435732556046    6.08486654507628   21.99671484123806
S         6.19287882001627    7.48921802345409   20.45330550896720
S         3.99632872124892    6.57998373614225   24.05776769353880
N         8.20397514551285    6.77683688438715   18.80360943067967
N         6.72393836407655    5.16779956161452   19.10296043366357
N         4.19583622568072    4.88791573847150   19.50272246266825
C         8.91768177872671    8.06181759548938   18.87832767105953
N         3.63972754071756    5.50815414588489   20.55064369457016
C         7.05656076762183    6.42764672767840   19.44412862925967
N         5.89269195725459    3.61045205778726   20.88087374207822
C         7.69431076823749    4.71539073923138   18.24757651457152
H         7.66055247456618    3.72827016141914   17.83913435382768
C         3.33301878392159    4.88704150965832   18.47793786331803
H         3.58499703680249    4.43262083658989   17.54152033662890
N         5.94854828398162    4.33109922356184   22.00814370963615
C         2.90285637178607    7.87516565123111   23.70021487651447
C         8.60061722795569    5.69617379021767   18.05809957134803
H         9.47954728406994    5.68899840434496   17.45307174741270
C         6.25109290000718    2.34803097398836   21.14346137949810
H         6.27608670323019    1.60591391579627   20.37186551905256
C         2.42580546709266    5.90472156739168   20.18898917810876
H         1.79332204529773    6.42751163905613   20.88053453726521
C         2.04415928670839    9.61096076649812   22.26843000075106
H         2.06422771127126   10.17250366741499   21.34700299324619
C         8.00557073288460    9.17700713781403   18.36223276471617
H         7.13070108723595    9.28718040622457   18.99376134734191
H         7.67944463098135    8.95774844567231   17.34797222436299
H         8.54796021976887   10.11763289389101   18.35758262991352
B         5.56439837234388    4.20320370264834   19.50751696444025
C         1.05315616034587    9.23039160341391   24.44331407057077
H         0.31161958793985    9.49945066281307   25.17957380964551
C         2.17956684117620    5.53218328527407   18.87217065442578
H         1.29522522778579    5.70789571860907   18.29659424562839
N         0.16184512458479   10.97839349371915   22.99114633329355
C        10.16865449502249    8.01234552530996   17.99878899726281
H         9.91428076909194    7.84560767289251   16.95478208433373
H        10.86248958370600    7.24497217553078   18.33377967726157
H        10.67478451190286    8.97139055443947   18.06799236883662
C         2.94089976926773    8.59693212828354   22.50281118369525
H         3.69267629894085    8.36364136106126   21.75835235006214
O         0.20030103582428   11.53726517797339   21.90802465066059
C         9.34735013062034    8.31311673415786   20.32560953575059
H         8.48437357906032    8.40956038911079   20.97593937745906
H         9.92165103471001    9.23303134681072   20.37979191744385
H         9.96731889577407    7.49334358020372   20.68266226562336
C         6.54070326885382    2.24268706965942   22.48855408950647
H         6.85311824382844    1.37185283527521   23.02567621250904
C         1.09259520213024    9.93039136500995   23.23624767611033
C         1.94793958774236    8.21505958453730   24.67006239817761
H         1.93110207119560    7.65924694883818   25.59387929685280
C         6.32950100844304    3.52220676128940   22.98939955698619
H         6.43166094659866    3.89284238758578   23.99079322338487
O        -0.62754514030614   11.26234369796062   23.87528035502812
H         5.54463773126135    3.32788149161359   18.70817104980841

