52
CSD_code = CAPMEM | q = 0 | S = 0 | Stoichiometry = C19H23BN6S2Zn | MND = 4
Zn        1.61182010614856    1.05974846502236   14.64324705216045
S        -0.75925946747802    0.74827279895364   14.07698871378646
S         3.51695786287362    0.09550244156698   13.82676775646018
N        -1.12878280982257    3.06315514230283   15.55535754703523
N         1.18320442564157    0.82757392557008   16.64877381253161
N         1.27476408047290    3.65402960791143   15.86886700346380
N         1.78831208503830    3.10681049687554   14.75903183192057
N        -2.56125854781189    2.69479915949741   13.93165705898323
C        -2.93331159690949    3.86069437948483   14.54504951537875
H        -3.78468693951131    4.42760486164496   14.23366163560553
C        -1.45370290901083    2.22125578466446   14.55531516120541
C        -2.04670967137815    4.08420663008996   15.53795049642441
H        -1.99047967659939    4.88767565864952   16.24094563162025
C         2.75334366155589    3.90831262445183   14.32506218184639
H         3.31187181624318    3.66685543473271   13.44198893222073
C         4.62587578691712    1.28939645835459   14.50630866098635
C         1.90645629944961    4.80397591887498   16.13282231776908
H         1.63984917099463    5.40031746870708   16.98170143827546
B         0.04261588903432    3.09164178767340   16.58265108014995
C         1.21244659639965   -0.23045128803036   17.44864521050256
H         1.84536026629646   -1.06668318137615   17.22201193520346
C        -0.19207825751626    1.21393269943890   18.30237072423302
H        -0.90245431860417    1.77251620312350   18.87749341740843
C        -3.24178390782219    2.07014188177385   12.81520742576265
H        -2.61819671783086    1.21730514525436   12.52691325981821
C        -3.34377360651727    3.04551560855555   11.64612666376270
H        -2.36106467951089    3.43575564935417   11.39276036197801
H        -4.00124893374081    3.87841286561178   11.88420145428742
H        -3.74396479095363    2.53007854681577   10.77788580523200
C         0.35133435875144   -0.03426206267144   18.52364280708363
H         0.15501571314478   -0.70151773957826   19.33682933549701
N         0.32264972428360    1.70822501085682   17.16864102396660
C         6.41157133378285    3.19510482194367   15.51250778334368
C         4.52614725337941    1.72239409693154   15.82241569286728
H         3.76088431919821    1.31084481457766   16.46731422119003
C         5.64650110375431    1.79168592343083   13.70515761707221
H         5.73441189336436    1.44029755519273   12.68830269454962
C         2.86923855178227    5.00878450893382   15.16647546805048
H         3.55571781079074    5.82513784342895   15.08451713095523
C         5.40526924282339    2.67058130040298   16.31157735640935
H         5.30511327944404    3.00418075378949   17.33545614970061
C         6.52385474258454    2.73195248376554   14.20558788471429
H         7.30846777428046    3.11984809972533   13.57081456755073
C        -4.61135740615738    1.56358537041639   13.25957770896784
H        -4.50247326287752    0.87247348374263   14.09152725410560
H        -5.09358356412977    1.04220845598121   12.43797060476270
H        -5.24853047221162    2.38905105885090   13.56959299858101
C         7.36562833788965    4.22742431711035   16.03484361576753
H         7.11572986205378    4.50702966477080   17.05538392207320
H         7.33984797808034    5.12108676322711   15.41194370904696
H         8.38527301887228    3.84321994062519   16.02088960337709
H        -0.26733280897033    3.82371035898485   17.46326676433664

