60
CSD_code = CAPQOZ | q = -1 | S = 0 | Stoichiometry = C32H16F2N8NbO(1-) | MND = 7
Nb        5.79394029129040    1.79745157417386   15.12123340474233
F         3.82160158718010    2.14402217220189   15.08513781421047
O         6.07779990181776    2.59073628750759   16.59851632172920
F         5.25521912881865    0.04836142901019   15.93510889132631
N         5.49652419530190    3.42462615701063   13.49563901248805
N         6.88083201576246    5.22151850919198   14.27820265087899
N         7.87426422860006    3.10841550670717   14.83923652039297
N         9.40975245366550    1.52419697461166   15.78768731935823
N         7.58479173910138    0.37661585503234   14.73428035686215
N         6.38097933649665   -1.41021816746986   13.65805351019595
N         5.31737174079981    0.68128613364263   13.17758970649520
N         3.84979916620326    2.27907281728092   12.16278435072801
C         5.83274676703662    4.72910835215234   13.65434037144979
C         7.80036270878603    4.45967203652956   14.83388307669890
C         8.95116686497305    5.02322154341732   15.52548381056384
C         9.36218015143135    6.31987388102564   15.78150850704194
H         8.77631226684180    7.15823166562714   15.43846240016446
C        10.53905438908071    6.49497861221851   16.49069097306420
H        10.88839238073325    7.49510296022095   16.70844629964320
C        11.28383595946863    5.40555280871562   16.93569506147077
H        12.19580729691762    5.58274732552258   17.48939679012999
C        10.87596400446415    4.10563534248191   16.68575456695664
H        11.44360653995769    3.25618045741714   17.03208744599883
C         9.70260181214724    3.92417480519008   15.97439138962709
C         8.97523665828147    2.74165199388261   15.53548234618016
C         8.76415223070528    0.44550626775202   15.40067624488331
C         9.32076776945711   -0.88852682191859   15.55491383045892
C        10.46971092779796   -1.37143441140668   16.15958362172656
H        11.15002467840455   -0.69775658318541   16.65652831168501
C        10.69984066129758   -2.73521363297094   16.10944397448753
H        11.58292761719311   -3.14634787168975   16.57919886020317
C         9.81186966964873   -3.59593529894989   15.46646221354046
H        10.02621846399903   -4.65584069879704   15.45029128522095
C         8.66578930295802   -3.11984714180952   14.85402051664060
H         7.97245632480749   -3.77869399474859   14.35500647284815
C         8.42582060101006   -1.75656801681563   14.90562261621504
C         7.35239713523619   -0.91848573691904   14.39635728928736
C         5.44037331200354   -0.66336963532033   13.11727727066957
C         4.39466505329875   -1.21832548981569   12.26971622623001
C         4.06965222727045   -2.50791267928552   11.88573092912407
H         4.65215585920437   -3.34655792819524   12.23439909712960
C         2.97714705448129   -2.67549811443888   11.05177262323958
H         2.69366831094078   -3.67014738984331   10.73527747336894
C         2.22828084999968   -1.58597456014337   10.61241520411081
H         1.37925002505168   -1.75833282055275    9.96492590756528
C         2.54799385843896   -0.29345358821982   10.99234893631932
H         1.97056679462560    0.55554726432776   10.66085196588997
C         3.63934767961948   -0.11886437286796   11.82566238524742
C         4.26067296221968    1.05485183201699   12.42225681692620
C         4.42604407648340    3.35081093158333   12.66257553339167
C         4.00950018540132    4.69075714881972   12.28211508365304
C         2.98623763574272    5.16995716600098   11.48086987635729
H         2.30597605453417    4.48735243435867   10.99602184772856
C         2.86986341138208    6.54136462185085   11.33608264984458
H         2.07792199401270    6.94922675445022   10.72284084217375
C         3.75422561067714    7.41352736886078   11.96858147128596
H         3.62848716954672    8.47905111612388   11.83286896725377
C         4.78244043253754    6.94156600492671   12.76574101478588
H         5.47050520343643    7.60899546862498   13.26053144373671
C         4.90040527141610    5.57015537489506   12.92163829837206

