86
CSD_code = CAPRUG | q = 0 | S = 0 | Stoichiometry = C41H36NO6PPd | MND = 4
Pd       -2.60653115254046    0.71993337716065   15.78806088221484
C        -1.67652715359889   -0.77632189800312   14.70437008721501
C        -1.45385338709864   -0.56907430253375   13.28487786447807
O        -1.26010944873481    0.55671782337235   12.85143648349771
O        -1.60095728581752   -1.65650083123528   12.51692165865509
C        -1.34750297722079   -1.49607740553250   11.13260518845780
H        -2.01229195215090   -2.17526373190764   10.60158866510884
H        -0.30466722079114   -1.75009213811044   10.93136004822792
H        -1.53698962634827   -0.46224906747702   10.83544438736080
C        -0.80676843896912   -1.42204073741462   15.51315583716002
C         0.40095753396669   -2.11822753181936   15.06568412501387
O         1.02496457068050   -2.77016397367045   16.07808664967564
O         0.82696305748635   -2.12312618442146   13.93484354925424
C         2.19912861974589   -3.47486071542419   15.71518953038649
H         2.56892068540710   -3.93957307674889   16.62604886438431
H         2.94347808811851   -2.78948217696269   15.30288461628277
H         1.97039375981420   -4.23314274187013   14.96305861085358
C        -1.13583373601982   -1.33182482151320   17.00784936702723
H        -0.37137180165924   -1.75680910673255   17.66504214838951
C        -2.44114286314166   -2.11290563306422   17.08477388894384
O        -3.52302393583639   -1.60635623798697   16.88802760231676
O        -2.23925975680761   -3.40442285262119   17.30353373525283
C        -3.36906722983113   -4.26537499997637   17.11673161648293
H        -4.24050077848327   -3.81820024339740   17.60588863553191
H        -3.09624866366293   -5.19686838871112   17.61571539080842
C        -3.64316470203077   -4.48441906962463   15.63629763884030
H        -4.47166512537534   -5.17638795714511   15.51487663309976
H        -2.76154102560513   -4.89161138738937   15.14722200010027
H        -3.89737618498008   -3.53908218813392   15.16201022321499
N        -1.46557053063433    0.04261305467669   17.21885119868589
C        -1.20299990480174    0.79180444117850   18.22349349079231
C        -1.87573719568346    2.08936501019499   18.18719419818807
C        -2.78582081504659    2.27395359001628   17.11336876325890
C        -3.49673955649645    3.47077868640001   17.09870022861625
H        -4.22121695095633    3.65955105724774   16.31274412085133
C        -3.31022075465405    4.44103620863314   18.07344238015787
H        -3.87871296866845    5.35978743570894   18.02883557977663
C        -2.39458951033620    4.24911742207601   19.09606663478737
H        -2.24236836850819    5.01574642871671   19.84206093049967
C        -1.67770461757040    3.07052013156763   19.15821813655680
H        -0.95980737175989    2.91017926728991   19.95127359417272
C        -0.33413027766843    0.37810669198881   19.34207651984121
C         0.99128513292781    0.02531599239805   19.10203452876058
H         1.38392259939324    0.07914485971989   18.09636465225595
C         1.80514538290398   -0.36908902134743   20.14818517000099
H         2.83370511389990   -0.63606222524536   19.95568536296092
C         1.30307129826410   -0.42251797446695   21.43792218922301
H         1.93961642965790   -0.73301973633472   22.25306410872724
C        -0.01595817774114   -0.07645823929547   21.68129365624751
H        -0.40981994490700   -0.11837435730495   22.68610161130992
C        -0.83294524055137    0.32554313411416   20.64039974804457
H        -1.86488573079673    0.58785195669189   20.82356348812844
P        -3.89921414563278    1.54066436400547   14.18186993723326
C        -5.63733707400424    1.60638145465266   14.73893080631484
C        -5.89669864339719    1.16455727890372   16.03354701908859
H        -5.06324392361177    0.82049787905358   16.65151536863265
C        -7.19349826746150    1.14698455787328   16.51460284448910
H        -7.39187649462477    0.80440492710663   17.51947994944395
C        -8.23863004598576    1.56287812266364   15.70558066638032
H        -9.25120929637613    1.55511402165868   16.08180848059342
C        -7.98902852833060    1.96850840221672   14.40437586264128
H        -8.80755447516865    2.26740328666868   13.76547565799272
C        -6.69489287105997    1.97977232164027   13.91582107288014
H        -6.50997643100201    2.25488514484671   12.88653487644122
C        -3.36210595940498    3.22057868173769   13.73926674154415
C        -2.02296097086563    3.48835078183692   14.01864679770641
H        -1.40795182386041    2.69850184599376   14.45546841394366
C        -1.48988481866036    4.73109822958971   13.73441864569416
H        -0.45086281001891    4.93601031267049   13.94585436002400
C        -2.29197127524882    5.71822909263947   13.18294749272204
H        -1.87869420569310    6.69221629247805   12.96472026848299
C        -3.62614491007626    5.45982555684483   12.91631546498726
H        -4.25203751921160    6.23254218795132   12.49319407587410
C        -4.16442117572453    4.21404955678456   13.19090170700122
H        -5.20870937139135    4.02574345476082   12.99038264825945
C        -4.18108829662251    0.69145439898278   12.59876188273422
C        -4.59990625511974   -0.63266979597439   12.70177567576516
H        -4.69401093091675   -1.07321316336565   13.68955892811709
C        -4.87350042513716   -1.36377180604621   11.56308631964528
H        -5.19645785814446   -2.39171627305713   11.64229230331972
C        -4.72423026556106   -0.77609811298324   10.31533019042574
H        -4.93497479934619   -1.34611688740415    9.42199122834846
C        -4.29511636754253    0.53635800065442   10.21133615053189
H        -4.16821907413498    0.98654220556497    9.23717674566656
C        -4.02091422993822    1.27502737500822   11.35068676127111
H        -3.66920636982361    2.29372068803978   11.27251843665959

