31
CSD_code = CAPSOB | q = 0 | S = 0 | Stoichiometry = C11H13NO5W | MND = 6
W        -0.33694052725664    4.91872018309096   12.45946333868899
O        -2.51985508238171    5.54380252250922   10.32206965221113
O         1.04579115420817    3.14665833470166   10.27113299905211
O         1.07344903700000    7.56710645530604   11.54284050265485
O        -2.02277115568539    6.59553673356044   14.50654799442861
O        -2.00042759824077    2.35241895499860   13.15347611925738
N         1.28219904709185    4.48624055914718   14.16581298974824
C        -1.71655130194599    5.31136833435398   11.10286021145218
C         0.60589563321419    3.80491402588508   11.09421256305808
C         0.61542618603740    6.58825652767674   11.91194489057923
C        -1.36510611220858    5.98787094273171   13.79688639939808
C        -1.35547675226399    3.27191611769893   12.94826053671263
C         2.61280837098109    3.97790577239583   13.78471004793701
C         3.53529936596675    3.86424091927282   15.00675235613455
C         2.91881341503166    2.99014200234902   16.09328710048599
C         1.55023721420898    3.54813376596572   16.46367037796150
C         0.68163963026263    3.64198249800125   15.20953100859668
C         3.26217678768439    4.89099255668540   12.75008891589406
H         1.44286399392063    5.40574675665067   14.59025615187121
H         2.46414717687106    2.98075623453601   13.34984974895191
H         3.72133332957715    4.86481334528149   15.40763343714672
H         4.49443024679607    3.44983617671410   14.69347953200676
H         3.57046711626836    2.96214324016089   16.96793361922061
H         2.80848964352299    1.96819223584873   15.72412204803785
H         1.05970889467534    2.90826102727320   17.19791763071163
H         1.66375854730389    4.54090752978909   16.90767572538142
H        -0.29875815475715    4.05101874003521   15.47227152346096
H         0.53912996372183    2.63951018929306   14.79249947013664
H         4.25149689982722    4.51704482707251   12.49810809915799
H         3.37044954885202    5.89981138118657   13.14646412991291
H         2.67377548171644    4.93585110982835   11.83654087975188

