56
CSD_code = CAPVUN | q = 0 | S = 0 | Stoichiometry = C25H24N2NiO4 | MND = 4
C        -4.47290390811924    0.57336500017970    2.44052109253220
H        -3.64575004646418    1.17177743068825    2.06990804494199
H        -5.22059323590524    0.46621842242200    1.65935324705898
H        -4.09208499103543   -0.40618509198404    2.71390049462264
C        -5.08243629248970    1.24434220039878    3.66157108392400
H        -5.46772056474825    2.24062013659764    3.39741174508599
H        -5.91671115276085    0.64126937374648    4.04999090969684
C        -4.36759235082553    1.89508277501462    5.84030210993394
C        -5.59242832718611    2.38147744331529    6.21910174137199
H        -6.42690108016891    2.35832315382213    5.53527488629205
C        -5.79590701089182    2.91719845623512    7.50247728716051
H        -6.77509354186734    3.28798872954840    7.76374933363609
C        -4.77255318288121    2.95958979327856    8.40002261610087
H        -4.92298280407408    3.36363729377493    9.39061120611573
C        -3.49088044545041    2.47723061395670    8.04927073249194
C        -3.25064892728190    1.94016191273802    6.75347600300925
C        -2.44749593048873    2.48232454759823    9.00170965657274
H        -2.72968176305224    2.83074985529645    9.99842457681756
C        -0.35050734188186    2.11606110517347    9.99125689244633
H         0.00592676487621    1.09425471988382   10.17930311539031
H        -0.90002395916287    2.45982486460823   10.87691786615437
C         0.82277289624630    3.01899791588470    9.73686670474337
C         1.11406461680874    4.08989630343602   10.56317462558950
H         0.49716166044070    4.27263460449507   11.43118467149863
C         2.18986160682155    4.91969233314783   10.29454368553598
H         2.40971958694795    5.74886201566213   10.94923642864138
C         2.96815986258247    4.68899570098532    9.17347766597609
H         3.79630377472660    5.34277513777031    8.94441846650160
C         2.68426523245301    3.62784633630103    8.33503338026493
H         3.27074249901350    3.47433510635753    7.44091758358751
C         1.61532168308449    2.77241510549467    8.60892859588738
C         2.36244962486808    1.01540341301351    7.31292235571343
H         3.32779960424721    1.21622123281672    7.78147345707953
C         2.37294326146193    0.06422595046784    6.27866446835324
C         3.56804261490787   -0.62533814556331    5.95825882097572
H         4.44360803527529   -0.45444531159805    6.56744739794451
C         3.60790132980893   -1.48302955922848    4.90349695286554
H         4.51535544006936   -2.01206941753876    4.65612608203724
C         2.46406659956697   -1.69049127753781    4.10929984473873
H         2.53680958988965   -2.37282255373671    3.27647653204088
C         1.28703940863997   -1.04375401769421    4.37921795015241
C         1.18954709747361   -0.14195094170688    5.50613673112946
C         0.09756687692771   -2.02887185778385    2.56425647645420
H         0.34112572209754   -3.05824794320358    2.86677191972034
H         0.83291005583603   -1.70434006296619    1.81295527723621
C        -1.30802744546452   -1.96709189972580    1.98734168869360
H        -2.02429319430113   -2.28818947514162    2.73809772386874
H        -1.38421028745341   -2.61160213313864    1.11587493230334
H        -1.54241506763799   -0.94529355320638    1.70362648045877
N        -1.22409251604671    2.09060520704738    8.82202742264105
N         1.33034178254368    1.69013122687863    7.75703989248695
O        -4.06761022565469    1.35507083399810    4.63241878382367
O        -2.11922850557964    1.49708849412216    6.36836343915806
O         0.08068572792654    0.42573807387605    5.75053576862488
O         0.13226813397401   -1.17091841596015    3.68153331997524
Ni       -0.47158699064118    1.45840883768191    7.19739983193787

