42
CSD_code = CAPWEX | q = 0 | S = 0 | Stoichiometry = C19H18N2NiO2 | MND = 4
Ni       -0.87288336182433    9.51906785476513    7.74926073665505
O        -0.23598586204735   10.08617491169973    9.37246551368344
O        -2.52921791730928   10.18409509263374    8.26531498620313
N         0.77387270660494    8.76520499194449    7.26021139059126
N        -1.50770477662230    9.00631872513937    6.09888295965437
C         0.31906245902756   11.74942934312945   11.48145865605043
H        -0.44824585744971   12.03684056786516   10.77874053404391
C         0.47382451156667   12.42009678675639   12.67907781389285
H        -0.17523266262005   13.24913160024603   12.92063718790228
C         1.45839038009889   12.02797057624207   13.57137990814689
H         1.58115722806398   12.55003837868248   14.50914116713705
C         2.27954381721459   10.95620784608136   13.26216906928946
H         3.03759338209202   10.63820145627196   13.96350325763190
C         2.13134874612728   10.28523104115129   12.06188046007083
H         2.76226797680753    9.43594953771478   11.84819298681690
C         1.15468759145700   10.68272608530675   11.15284016267239
C         0.94113794953333   10.00804215618480    9.84590611065276
C         2.00104886658834    9.35887758349237    9.21840643196418
H         2.96467916588194    9.34688393359324    9.69735571634926
C         1.87959586528248    8.72533121389320    7.97471838599977
C         3.08798487743619    7.98074675312226    7.46922609791817
H         3.47553292906827    8.44720503116485    6.56355175860629
H         2.83296949226302    6.94740733174137    7.23857751793583
H         3.87431656360289    7.98559044173900    8.21750406333204
C         0.71408982132693    8.03620863119161    5.99948411140985
H         1.63962872883735    8.14747149171491    5.42362417821769
H         0.56088159050033    6.96726435951391    6.20480151694597
C        -0.45998676320220    8.58099301992008    5.18394033684257
H        -0.12811116985305    9.45910194313657    4.61413891948808
H        -0.83225573743866    7.83068219946842    4.47464868861169
C        -2.72552676974394    9.04159321273111    5.65996932569657
H        -2.91930607325409    8.68142289314934    4.64647593544366
C        -3.84419442922546    9.52859442885027    6.37743600970401
C        -5.12954626091760    9.47899924538375    5.80493822416051
H        -5.23874420506371    9.04637576198410    4.81955465359084
C        -6.22064720351711    9.96326179576215    6.47211950701212
H        -7.20233346804549    9.91951800371168    6.02595549811902
C        -6.05619143287680   10.52207638328661    7.74742456157285
H        -6.92096180934913   10.90365798901829    8.27163693062640
C        -4.82396068196978   10.59069105269246    8.33391171596809
H        -4.69143363088670   11.01903092053908    9.31553043669743
C        -3.66304457616537   10.09578742738188    7.67980657669265

