45
CSD_code = CAPWAT | q = 0 | S = 0 | Stoichiometry = C18H22N2NiO2 | MND = 4
Ni        4.06430964418064    4.71333069576100   -5.29439409489927
O         5.82616841273327    4.40319011849302   -5.74089858275552
O         4.68786722123868    5.68945046310928   -3.83688965211621
N         3.40377307708430    3.51157741763978   -6.61252168162350
N         2.31137216538829    5.09524455024354   -4.87884569476984
C         7.77844188685899    3.49869898003375   -6.72693861246878
H         8.23445544734688    4.27695651849736   -6.12198503898123
H         8.00526958906057    3.67665205910935   -7.77589904687013
H         8.18989870162386    2.53220053182027   -6.44640962384920
C         6.28089267516443    3.51019930864562   -6.51235732411617
C         5.51304398908080    2.53588774301625   -7.13680511981461
H         6.01830873495874    1.74614797450024   -7.66889581239418
C         4.11067867398845    2.51670720909498   -7.10998682267967
C         3.48681610490798    1.27540413308367   -7.70137780341274
H         2.50330790839516    1.07427934417768   -7.28654569267304
H         4.12995289418491    0.42459747761986   -7.48760526336057
H         3.40855236544798    1.36234137817046   -8.78411605389334
C         1.94527303291752    3.53913619984472   -6.70188093644043
H         1.52651329776435    2.69556713875030   -6.12850667048081
C         1.35580431525225    3.52165227998683   -8.11952607570230
H         1.67904211256785    2.65149250735142   -8.68368330583125
H         1.69581926861833    4.40947244920361   -8.65646347723656
C        -0.16926515252828    3.51253601459364   -8.02086571865857
H        -0.60085729292172    3.50095796838598   -9.02336555560553
H        -0.48868087658105    2.59981355401822   -7.51180736738713
C        -0.68793097804129    4.72610640504290   -7.25647372785279
H        -1.77198510720107    4.65814033615048   -7.14788265366514
H        -0.46715186588797    5.63077024542514   -7.82754037926471
C        -0.04144011037767    4.84253558548592   -5.87572207189269
H        -0.34011563245921    4.00282534686190   -5.24410537042025
H        -0.38602187346665    5.76772601894781   -5.41088488554614
C         1.47771183926291    4.85409865328946   -6.05000371543176
H         1.72529253742148    5.66593457428959   -6.75307383634045
C         1.83560051707568    5.58361663671938   -3.78191496796263
H         0.75982984021019    5.70811787824173   -3.67053642683231
C         4.04411594446621    6.07199586774640   -2.79899784749805
C         2.61824248860616    6.02507668140617   -2.68322303986680
C         1.99350889922623    6.47262825679934   -1.50513467894203
H         0.91446395153212    6.42503418529114   -1.44269063625634
C         2.72484950573051    6.95616261100000   -0.45451568916153
H         2.23635364752275    7.29282689139862    0.44705756607563
C         4.12080377397692    7.01659568471002   -0.55889302365522
H         4.69623085779232    7.40342022768799    0.27032168237166
C         4.76225834406796    6.59568333390063   -1.69011953436785
H         5.83702522379751    6.63951056446191   -1.77659573546715

