50
CSD_code = CAPXEY | q = 0 | S = 0 | Stoichiometry = C21H16N4O8Zn | MND = 5
Zn       10.94977166712461   10.21507494249170    9.06816289624151
O        12.63011859493634    8.68869569154756    9.70802454640979
O        12.08585834632285    7.52282261506942   11.40494008351584
O        10.69046458325660    8.88721093641716   10.54501734568898
O        10.46403472865369   11.98786586162747    8.05022048773326
O         9.08512604952391   10.88911014440896    9.22269245875223
O        12.18241949953400   11.39291574264674   10.15818858557286
O        12.76517154884137   10.54127366333207    7.77209295453809
O         8.49302776363415   12.73773506755792    8.34392662625802
N         9.32706481626157   11.90296252512062    8.53725791385969
N        11.81499669439171    8.34510696759198   10.57437634583957
N        10.68260058649872    8.95433486657151    7.50455385714715
N        14.23248260559623   12.22697488167066   10.55392754248280
H        15.12640924522116   12.47838660840755   10.15649954106541
C        13.32561149419673   10.50060956048984   12.70723997390169
H        13.69625828920773   10.03202882749752   11.80869586142213
C        12.78716517254668    9.72834959231128   13.69846053039082
H        12.70099461476291    8.66118900863559   13.56065588014702
C        12.33951337689287   10.31709717343648   14.89086236633587
H        11.90403244119463    9.69395986342495   15.65724151671750
C        12.47271931971623   11.66271852641361   15.08673380111275
H        12.15666468501822   12.11929126809325   16.01363139590130
C        13.02380885823992   12.48893631426129   14.08439473497000
C        13.19394469667787   13.87516407959800   14.27806435910529
H        12.88621036597468   14.30767964436016   15.21863838756568
C        13.73985078220693   14.65898798936563   13.30071613021618
H        13.87925281502276   15.71753694701786   13.45739789537756
C        14.09634371539259   14.09837516291916   12.06731779430324
H        14.48944249493289   14.73058208735103   11.28427866345358
C        13.92158455559261   12.75748773883592   11.84169792691718
C        13.42354635777133   11.90005088869922   12.85374244087147
C        13.33525203267830   11.58476515447292    9.79820597519136
C        13.86588994903858   11.06991089731026    8.45720080126974
H        14.31979304659925   11.89326017748295    7.88855693842870
H        14.61044094858906   10.28871847020848    8.65886342894619
C        12.91527032337057    9.52214407887766    6.89792271723373
C        14.05148197257366    9.24418027920851    6.17814939986761
H        14.94603808442821    9.83231102727646    6.31293318840324
C        14.05749272172717    8.19965171996924    5.24079368872560
H        14.96370924638324    8.00863733516327    4.68659658052358
C        12.94314817077053    7.44107207709523    5.01616374502099
H        12.94869330786012    6.64891145498024    4.28370373616535
C        11.76581185702913    7.68010631620133    5.75434135023075
C        10.58240065253997    6.92723591627503    5.60535318744275
H        10.55046387295781    6.13382019372420    4.87275779894834
C         9.50104401747162    7.20871058795223    6.39707800458542
H         8.58207141318831    6.65131410625630    6.31100519758859
C         9.60148260057912    8.22702023714253    7.35608873311823
H         8.78320488918031    8.44979890024168    8.02680807178225
C        11.75462012789344    8.71941588299149    6.71782661271344

