50
CSD_code = CAPXEW | q = -1 | S = 0 | Stoichiometry = C24H20OReS4(1-) | MND = 5
Re        5.04519662786976    9.35848945193133   24.14683266032257
S         3.20113061594425    8.77284694921463   22.78851259165148
C         3.37439025506904    6.26268160499500   23.87345720266237
C         2.83720375696273    5.06276939986520   24.29224197534428
C         1.46927041077091    4.84578225804340   24.22697554165237
C         0.63936863361266    5.84136741659084   23.73923594268261
C         1.16722287708398    7.04914063764348   23.32483261200136
C         2.53836429742179    7.26907053593018   23.39787919689800
S         3.60980265112712    8.76102442163841   25.94843356549157
C         3.91913598497051    9.22997902414739   28.60747384697447
C         4.63002619300470    9.25123825187654   29.79198896627628
C         5.96948407869318    8.89936174557044   29.81098626924629
C         6.59458250777661    8.51500050801390   28.63447707879597
C         5.89043302140150    8.48286428297654   27.44832537281806
C         4.54865844420074    8.85371439497993   27.42545410866738
S         5.59000739728670   11.17759209412818   25.55152935647292
C         7.17310662863425   13.32260935351197   25.01068717160424
C         8.32935389535427   13.93066467331194   24.56028392918721
C         9.34696424880962   13.17357374413026   24.00431070570587
C         9.20509675625542   11.79757527398358   23.90744114634709
C         8.05744646766449   11.18063053360035   24.36142045213284
C         7.02766391834952   11.94382686561493   24.90470848312292
S         5.49570774946158   10.88998940829176   22.38309676273456
C         5.82977539055160    8.68704456965077   20.78108195941108
C         5.79004378602453    8.03119854665243   19.56767194605515
C         5.33699521338457    8.68446050697684   18.43165737238283
C         4.92361267344464   10.00356265906790   18.51854961340497
C         4.95202631980150   10.66561950553874   19.73082407406413
C         5.39740578654398   10.00723105813514   20.87253780267318
O         6.25541345275140    8.20882343926709   24.10028145995280
H         4.44210807813807    6.44576973430458   23.92396247066163
H         3.49001892393704    4.28910581470711   24.67191078917789
H         1.05181075712232    3.90445016192452   24.55748030765351
H        -0.42910860205343    5.67879578840912   23.68676835223510
H         0.52646482124216    7.83236975018364   22.94719170163675
H         2.87572825586811    9.50767008530266   28.58352855639745
H         4.13602546141169    9.55106780999109   30.70686213014798
H         6.52513767523879    8.92496433720604   30.73850847816914
H         7.63949679574513    8.23712885722929   28.64288981476195
H         6.36976267400392    8.18349549358339   26.52264634919244
H         6.37249441365698   13.90658520277980   25.44037201838478
H         8.43333497285785   15.00490838077457   24.63754062374877
H        10.24702921071184   13.65380865000367   23.64513114241016
H         9.99637979260199   11.20134567946381   23.47471062570493
H         7.93217020287628   10.10603127541361   24.28603100019779
H         6.18301232862894    8.18541179089178   21.67536806694007
H         6.11614129250374    7.00211391752099   19.50583103238861
H         5.30517750396691    8.16630093943695   17.48286075887265
H         4.57004238697462   10.51946474813103   17.63555068782270
H         4.62728301429792   11.69277846746562   19.80836592674664

