64
CSD_code = CAQBOM | q = 0 | S = 0 | Stoichiometry = C19H36N2O2P2Si2W | MND = 9
W         6.70510867353141    5.12097675546017    3.77421227771293
P         4.44363998678806    4.07196134479708    3.17801929000583
P         5.29150116889377    3.29735040998881    4.97009780344974
Si        1.64486615063029    3.89574127027831    4.52398070704931
Si        2.51792191027052    6.41254311179750    2.64092831289368
O         5.11811414144037    7.61248490238857    4.73919983219448
O         7.07025990160114    6.02324195513830    6.73807603496047
N         5.86406719150072    1.05722943898613    3.40512405468773
N         7.36528857033714    1.54720384726089    5.09611001027378
C         7.41694187480737    4.06039786102391    1.83440963316318
H         6.90391825407654    3.28783596154473    1.27403814578722
C         8.44955755487836    3.84748733933499    2.78210766340307
H         8.84332020945494    2.88843231285715    3.09411978410268
C         9.00623676078252    5.09829957461093    3.10678210916613
H         9.86595257969472    5.26546280004414    3.74307832526511
C         8.32278640190806    6.09553967108026    2.36506365490311
H         8.60501976984724    7.13884405023327    2.30253181848710
C         7.35299019551856    5.44579089033327    1.55969509582889
H         6.77041224169299    5.91041154942203    0.77668325840698
C         5.66724116193585    6.65928611170836    4.35924688191049
C         6.94414976680125    5.65111065240045    5.64240229509740
C         3.03891581004870    5.05884059597406    3.90742028440492
H         3.43501077395194    5.57048797132773    4.78801293727618
C         3.95719580422988    6.90814369135699    1.49226657912493
H         4.23393357316493    6.07702207299280    0.84928021374241
H         4.83353473522451    7.19425878066350    2.06590401749342
H         3.68662526725057    7.74483429585280    0.85493098527338
C         1.89950979349392    7.94243145936693    3.59189666995145
H         1.56912660956127    8.71724397322516    2.90761812919315
H         2.69273786580044    8.35728122020875    4.20468312284620
H         1.06782687324843    7.70131121130877    4.24479568478873
C         1.15637938713718    5.75878341550210    1.46855101459076
H         0.93707787644493    6.49682495057970    0.70399212184798
H         0.23251013684590    5.54909430549886    1.99379004696847
H         1.46473490559459    4.84786171666375    0.96722045781783
C         0.12835353680147    4.91343894416893    5.07394611456335
H        -0.65504200440804    4.25746894424552    5.43896737679713
H        -0.28546127429299    5.50022447240323    4.26251863365512
H         0.38482624775745    5.59573227043035    5.87727258509168
C         1.14138007472618    2.65909569358728    3.15110641476205
H         1.92834961965258    2.56375624600617    2.40966717468925
H         0.24457306953284    2.98623968717754    2.63746108304089
H         0.94282980051946    1.67140999402797    3.55545846344715
C         2.18665260399834    2.91054476654492    6.07198543060470
H         1.32523442398186    2.52175340646944    6.60703633679493
H         2.74215656700496    3.54686316353872    6.75434289469428
H         2.82840901303909    2.06964071095239    5.82549914115746
C         6.25388105741986    1.89738386082303    4.40097629573762
C         4.48287162082468    0.88298695044612    3.03873981905000
H         3.83945007926804    1.30095814398646    3.80929288308291
H         4.28158677728981   -0.18806157073343    2.94153275197992
H         4.25051861831179    1.36861848171168    2.08640868840660
C         6.78858351310150    0.44705857531616    2.47698502531892
H         7.80803031711136    0.75776827481105    2.68312968025459
H         6.53253835034733    0.76327721247336    1.46062302948497
H         6.73035065409975   -0.64515639342655    2.50982575467410
C         7.79413201910222    0.17293687493417    5.24386382978242
H         7.05300016420214   -0.50673433212861    4.83251808491118
H         7.90208677684572   -0.04812048836606    6.30790270683985
H         8.75850994018327   -0.00519993700886    4.75944121515620
C         7.93026933524301    2.44663403304398    6.07184901559080
H         7.90907015501824    3.47254774484105    5.68795770305692
H         8.96256188194520    2.15526727650574    6.26423930908285
H         7.36938318306293    2.42581552197682    7.01068330423622

