31
CSD_code = CAQBUR | q = 0 | S = 0 | Stoichiometry = C12H12N2NiO2S2 | MND = 4
Ni        0.88856035234588    1.32348590263424    1.34891778029690
S         1.68775258910521    2.42460111819915   -0.31795142277956
S         2.79590904403297    0.93780316522172    2.26720081268149
O        -0.82497367516926    1.62866378843256    0.60588869130767
O         0.11212087458638    0.36007890667990    2.78023424985948
N        -0.92245925812262    2.31137587949941   -0.51601861509351
N         0.89559129761143   -0.14167396862446    3.71229047510485
C         0.10603227454359    3.49846923059704   -2.29519195709763
C        -1.13033868691856    3.72790809676650   -2.84862882506727
C        -2.26821566755452    3.23434173273552   -2.21072980442512
C        -2.15032859964023    2.52325657241467   -1.03736410213298
C         0.20563608801838    2.77510515096747   -1.10462750019832
C         2.23352631850985    0.04626310658071    3.61893763225955
C         3.06736558758184   -0.48386475712949    4.60602105300369
C         2.51943623926868   -1.18533482258650    5.65256937763624
C         1.13664581478033   -1.35750058830228    5.71195368446814
C         0.33039889636711   -0.82761596313924    4.72932779035745
C        -1.15144718712508   -0.94718351887811    4.68582504661558
C        -3.28812986719628    1.95063386847861   -0.26959694874285
H         1.01565019814198    3.85759466435508   -2.74637891617382
H        -1.22337102024984    4.28427641729587   -3.76754424449497
H        -3.24828258964519    3.40243492574401   -2.62577620160937
H         4.12806035693180   -0.32249217622639    4.51218464950927
H         3.15000154885101   -1.60042826541084    6.42245734344359
H         0.68430535147364   -1.90428280119609    6.52278694146077
H        -1.59781781649318    0.04686445092054    4.66829510147417
H        -1.45088856316907   -1.43970545190914    3.76088985095977
H        -1.52241974982126   -1.50519357089763    5.53944248287937
H        -3.28603702292122    2.35519273668206    0.74232522069038
H        -4.23424303434089    2.16915904453222   -0.75414380488951
H        -3.15924009378304    0.87266712556314   -0.17459584130322

