31
CSD_code = CAQCEC | q = 0 | S = 0 | Stoichiometry = C12H12N2O2S2Zn | MND = 4
Zn        2.92708766210912    3.01115838042184    0.04662219963923
S         4.60738495634562    4.21104869889408    1.15792009971648
S         2.08928955980621    2.09696959102271   -1.94343847361889
O         1.65419377182399    4.23173429293772    0.91218970568452
O         2.56152747967516    1.26158464920201    0.86074999755164
N         2.15080996608011    5.12830983187464    1.73339522557286
N         1.99042950634479    0.35706860427810    0.09867765614376
C         3.95166908678934    6.21867037987333    2.82949864914553
C         3.07349965802861    7.05378857390154    3.47276409322997
C         1.71003905925994    6.90953398642316    3.23047516387005
C         1.26758278494287    5.94181460993037    2.35762101362739
C         3.49101492652538    5.23709960764913    1.94500173713823
C         1.71353549201115    0.59980411846303   -1.21176396227449
C         1.10890240268371   -0.41123189545476   -1.96673792017950
C         0.79807858436552   -1.62159730715649   -1.40041976758469
C         1.09572494211676   -1.83007540656991   -0.05640473062044
C         1.69270298174325   -0.82987521080869    0.67660555201692
C         2.05105263180812   -0.95858535123587    2.11494444621195
C        -0.16623781822298    5.71174091748661    2.03344491615153
H         5.01655132039659    6.28469716756124    2.97735215365648
H         3.43145993263291    7.80966373672864    4.15325076327782
H         0.98958257103415    7.54664930407507    3.71640966836608
H         0.90128328444004   -0.19350401475503   -3.00099696157273
H         0.33015352954357   -2.39813646628357   -1.98424332895910
H         0.86687272031595   -2.76720521328405    0.42376510461948
H         1.76977937601289   -1.93426558163361    2.49805054783118
H         3.12226790149158   -0.80451346801711    2.24190454482293
H         1.55385423642044   -0.17634380462938    2.68766894824810
H        -0.80281123281992    6.39333690517718    2.58833104351791
H        -0.32613223346721    5.84240097586396    0.96354574816239
H        -0.43324904023696    4.68105938806402    2.26461616660822

