38
CSD_code = CAQJEL | q = 0 | S = 0 | Stoichiometry = C15H16NO5V | MND = 6
V         3.10793921829322   16.69550884418794    2.66713425116484
O         1.86754611176272   15.80402707667832    2.68399593890293
O         4.38114318916597   15.69149242813394    2.08088404144195
O         2.62971820508180   18.06302526384975    3.80466702681900
O         3.02133064296403   17.74759222287713    1.41421122143024
O         5.35053078893630   18.11178760312948    3.23593384482297
N         3.66684727343676   15.89243896816963    4.54086380351065
C         4.15049205465950   14.70850228446084    4.69390947350674
H         4.16784207675227   14.24311508587325    5.68412830543992
C         4.69490003519410   13.93159293916033    3.62617334586353
C         5.17033016639045   12.63206072092004    3.85501097576100
H         5.08534011652250   12.21658883334669    4.84934421928079
C         5.72920159875972   11.89010054679849    2.84162592962931
H         6.08509765299545   10.88921227681666    3.03115594453944
C         5.83681616253105   12.43741035755186    1.56414013379936
H         6.27983087369655   11.85649595241783    0.76857501355797
C         5.38647380648423   13.71171598725471    1.30631064913142
H         5.46378140660387   14.14282094233890    0.31814308397867
C         4.79806821701780   14.48891809271458    2.32088641717631
C         2.57275711559193   17.84903667767123    5.08574385164311
C         1.98257623404416   18.73529257623438    5.99802098504458
H         1.51223572912349   19.63348908033538    5.62582459962009
C         2.02119659884775   18.45458857657502    7.34749394897238
H         1.57343244314656   19.14465447422811    8.04745482467271
C         2.63812391702874   17.30106337979881    7.82160844287480
H         2.66525265199185   17.10406427261044    8.88249198215698
C         3.21333270437350   16.40551762650312    6.94322693392477
H         3.69245974794944   15.51601220276010    7.32590084393555
C         3.17341479119663   16.65981742597478    5.57143624873487
C         2.17091983353612   18.32643380820154    0.51748457084822
H         1.43209289595452   17.58722478157408    0.16934896105903
H         2.72372487285185   18.73270539770493   -0.34353748776306
H         1.63446737621392   19.15132404039587    1.01553768770984
C         6.27792947745650   18.20267881702800    2.17433284836934
H         6.92575501016676   17.32934941784604    2.24515557343609
H         6.88826627633565   19.10906271349392    2.26645393920596
H         5.77778112523506   18.19588283973340    1.19989430189825
H         4.76595160171041   18.88159546464547    3.19553332389570

