67
CSD_code = CAQKAH | q = 0 | S = 0 | Stoichiometry = C28H33NO4W | MND = 6
W         8.42772475722280    3.39967947465921    0.19500656795600
O        10.09241559868518    3.65264168802724    0.31984091119578
O         7.75101831694387    4.91981918815526   -0.67134498624520
O         8.02950938155543    1.71693026786878    0.89050537578902
O         7.81579966387950    4.12496779306599    1.90438828043215
N         5.66790035785944    3.35511609327841    0.31202113320343
C         7.25756521482053    4.69744858913959   -1.90282829429875
C         8.06108116896760    5.00523326396820   -3.01619980154515
C         7.56841442163588    4.77259870416576   -4.28732794964996
H         8.18512511609270    5.00466132719031   -5.14378102855904
C         6.30065645154629    4.23491607461723   -4.48591555401594
C         5.52056279798348    3.93508504182470   -3.37823609917617
H         4.53139859961358    3.52270696246690   -3.52372992693826
C         5.97520122328115    4.15806251985526   -2.08465980109390
C         5.06225248472561    3.96235220552422   -0.89714004857724
H         4.71909468076986    4.96706821294479   -0.61864810181594
H         4.17897287475514    3.38580907890007   -1.20845814511915
C         5.29874245529874    1.92328611365090    0.44115044078944
H         5.72095366146701    1.38668416968801   -0.41773487786667
H         4.20197472305528    1.80893707250608    0.42545983113706
C         5.84673286895986    1.36115924618204    1.73113732981236
C         5.04325027406117    0.93643899932145    2.77956649249699
H         3.97037506883924    0.89972939694414    2.64590717512514
C         5.59066411822782    0.57382256030074    4.00424703673438
C         6.96436955556488    0.69439403582985    4.18987653685536
H         7.38945193808654    0.46925813411943    5.15785338428209
C         7.79922922733719    1.10181804039686    3.16419800459590
C         7.23725515872764    1.39365766529408    1.91149372121332
C         5.14826217032573    4.09127344019395    1.49639041085632
H         4.05781535245752    4.21776428429225    1.42212492408916
H         5.36804931756921    3.49432942475349    2.38672330262242
C         5.85398136542311    5.40932779031279    1.62880008259953
C         5.23707218713218    6.64574945763861    1.52861132794537
H         4.16330476263367    6.69552846238044    1.40094211754676
C         5.97939382189358    7.81589521427591    1.58944266487404
C         7.36268649382734    7.72284583178344    1.71531785717846
H         7.94890269755664    8.63169748954898    1.72387785529264
C         8.01272210242464    6.50550154029545    1.81636274622285
C         7.24591731360211    5.32480022422744    1.80025803109344
C         9.43510516551173    5.53651724651171   -2.73155857882804
H        10.07417044387753    5.46311040070415   -3.60744480905263
H         9.87516623899195    4.96549449095665   -1.89453843138944
H         9.37722976436208    6.58086300285867   -2.42269329389320
C         5.80040811511084    3.96096481422770   -5.87310510738906
H         6.15984794702966    2.99036873730328   -6.21597986885621
H         6.16010609020980    4.71543950079919   -6.56856960480467
H         4.71375061869163    3.94751674497426   -5.89917467007710
C         9.50508812195137    6.37258413833474    1.89237710008648
H         9.81272707223863    6.10827309304244    2.90497290525941
H         9.99510053358138    7.30105228452333    1.60912493161587
H         9.83244883152686    5.55708486170665    1.22033239631180
C         5.31910344680274    9.16073909599592    1.50343602787777
H         5.42393663123648    9.69509700111297    2.44750364315166
H         4.25948934627552    9.06035515845291    1.28232559134387
H         5.78182838936838    9.76621268121048    0.72565814232463
C         9.27944395844783    1.30755990391764    3.29918712699170
H         9.58199151578705    2.16042333024332    2.66140141973822
H         9.82104730095572    0.42727197531787    2.95085960610293
H         9.55581675265135    1.50213895366498    4.33222342781460
C         4.70416660341249    0.08192449030681    5.11020015823351
H         4.41774097793280   -0.95400557625373    4.92905510652797
H         3.79317244384386    0.67383869756346    5.16967760273459
H         5.21592486010889    0.12980403663339    6.06734918798805
C         8.57762504216528    2.13053399696250   -1.67287664423714
H         9.10850662466552    2.54865885245285   -2.53883980567637
H         7.61166240485182    1.78928669166322   -2.08214003310331
H         9.12669501361350    1.19939631524785   -1.43976245382593

