126
CSD_code = CAQKIP | q = 0 | S = 0 | Stoichiometry = C47H71NO6W | MND = 6
W         1.22562251352135    3.27598842171716   16.93818074278846
O         2.64650146408793    2.68796953086500   17.63821230570801
O         1.39199674607636    3.18896723548113   15.02182443862003
O         0.29303593776631    3.64427448849617   18.50199039574057
O         1.66341400746513    5.11948417636938   16.84755210621482
O         0.20673638533346    1.66983686561710   16.87770882903114
O        -0.08959168461718   -1.05628515229557   16.40593584882786
H         0.03476552176353   -0.32038145426141   15.78386790784480
N        -0.92001706953909    4.40780007921875   16.19356600302946
C         0.53706775469603    2.32055623135758   14.45726102283922
C         0.91767574944500    1.06516895650964   13.93537304242564
C        -0.08718729884604    0.21980424837538   13.47544023905672
H         0.19864903235857   -0.74802767240231   13.10873584910755
C        -1.43637548666250    0.55137747034223   13.47938705857616
C        -1.77886721868745    1.82636986156548   13.91097867127744
H        -2.80788181101033    2.15595803596221   13.89074640458053
C        -0.81734296813585    2.70316589459918   14.37684083817853
C        -1.15389377316092    4.11557302345994   14.76551972231366
H        -0.50209366395635    4.78662233683666   14.18906068263340
H        -2.20052672849377    4.34214163619176   14.50042359745421
C        -2.02077915190650    3.82694885787802   16.99643171890228
H        -1.94219557934311    2.73320294650415   16.90572515676375
H        -2.99134233362412    4.13872754214670   16.57229293489683
C        -1.97977057148087    4.23028550764401   18.45086886768985
C        -3.11021653934172    4.69342093183109   19.10611500098548
H        -4.03222731230733    4.75038125036743   18.54930757464555
C        -3.06132874088147    5.06597521183794   20.44092306457939
C        -1.82813792521967    5.00924247619554   21.09099450784186
H        -1.77958800527104    5.32833271097581   22.11813293092759
C        -0.67041527939482    4.56520973410923   20.47786792226373
C        -0.76070262217083    4.13325938689498   19.13898880807032
C        -0.90590813246322    5.87954335531187   16.35719447624010
H        -0.80294635320381    6.09837279976612   17.42800421161493
H        -1.86337950456298    6.30259875937545   16.01034933673553
C         0.23881128730478    6.51617974482880   15.61351361530756
C         0.04348396741452    7.50769682301040   14.66962509620788
H        -0.96869489523932    7.81685233223257   14.45084352394673
C         1.11883235295094    8.10360001421243   14.02272094273808
C         2.39709791059743    7.67562309096463   14.36443875252815
H         3.23761871980238    8.13592164081876   13.87875049693748
C         2.64446090454706    6.68661951264987   15.30646153985339
C         1.53728722210105    6.07708686256104   15.92914225663114
C         2.38366917274598    0.64670478981777   13.90508288300833
C         2.89791770347532    0.49359504239045   15.34451756766593
H         2.73382785338724    1.40791986988483   15.94000864251036
H         3.96611923809077    0.28420453190777   15.33444837422934
H         2.39344646743661   -0.34010495606804   15.83073414716557
C         3.18540505726111    1.72537198229283   13.16504944206618
H         2.84589704787231    1.80436027187440   12.13350821801949
H         4.24401585042515    1.47521809034036   13.16488213545709
H         3.05482628035411    2.68708747435640   13.65172312120454
C         2.61004956744519   -0.68692207071509   13.18321840318909
H         2.12874066671080   -1.50849447992692   13.70775605379929
H         3.67778998947424   -0.89322141551917   13.15163549567684
H         2.24510000869244   -0.64870897390105   12.15923313163220
C        -2.52674557664194   -0.42130074533093   13.05764098592808
C        -1.96985197882362   -1.77154275385172   12.60001053021636
H        -1.41562738544095   -2.25361166287929   13.40130774819002
H        -1.32399565031705   -1.65597044577592   11.73281393095874
H        -2.79341972348885   -2.42539065239196   12.31980281536574
C        -3.33664336485519    0.18168973275031   11.90163393374417
H        -4.10599467423339   -0.51649858550532   11.57863948070865
H        -2.68440555574111    0.39207806608891   11.05682945579940
H        -3.82210497321109    1.10801438332013   12.19552996927285
C        -3.44108893192317   -0.67201614014210   14.26564018044331
H        -2.86275791147549   -1.09339137858117   15.08486881190132
H        -4.22987527689302   -1.37371410204604   14.00228469722146
H        -3.90465516205393    0.24908574826501   14.60903742983050
C        -4.28468554952400    5.54134648079609   21.21170461888764
C        -5.55795781252297    5.52997357840224   20.36113941803707
H        -5.46895392238718    6.20531226429884   19.51340327807847
H        -6.40025366530712    5.86067579488193   20.96555399401426
H        -5.77684710450886    4.52794406512501   19.99976787582767
C        -4.05098535764508    6.97740789484977   21.70114722312990
H        -3.86656410809814    7.63707414702629   20.85587823740299
H        -3.19668794106648    7.03388776510329   22.36950292516076
H        -4.92662378255538    7.33816330355513   22.23681138304616
C        -4.50959401549590    4.61332126921043   22.41390086366944
H        -5.39378988028406    4.92274143518814   22.96735936094410
H        -3.66111467608081    4.63020100794475   23.09164345299813
H        -4.65416192902719    3.58977469356564   22.07498574980180
C         0.70024506207325    4.55671439857024   21.14333048685747
C         0.64120845378195    5.04942664256656   22.59275937738260
H         1.64160571348671    5.03869381516472   23.01964204457193
H         0.00984067121802    4.40342823167151   23.19863039700217
H         0.26632864899652    6.06908556647226   22.64590680045820
C         1.63063352088422    5.48756839438784   20.34642087003950
H         1.21329901628048    6.49230121002339   20.29470261449789
H         1.77678939916654    5.10684731919227   19.32744964713609
H         2.60381854290407    5.54033752067743   20.82971219187099
C         1.29083873548216    3.13639458088217   21.13377014728343
H         1.57206899011208    2.83559177362089   20.11882407746165
H         0.57288022927310    2.42212201505486   21.53366939450351
H         2.18604562817546    3.10833538564436   21.75148694426879
C         0.85965593416910    9.19071161145345   12.98901507941993
C        -0.01600114505953    8.61721574951986   11.86563739908971
H        -0.19364830416223    9.37376358764579   11.10411589555630
H        -0.97847723037340    8.28436054407997   12.24372750288755
H         0.47986166769051    7.76814659449230   11.40013460902198
C         0.13413381765395   10.36218672861132   13.66602392767746
H         0.74093931902172   10.75985909757326   14.47648199556363
H        -0.82136869323075   10.05102859505802   14.07861096421868
H        -0.04775002242781   11.15823681512941   12.94694104742618
C         2.14594839257660    9.73027843817454   12.35788448726763
H         1.89591989428714   10.49536405861193   11.62543748050160
H         2.69144659344996    8.94130661612312   11.84591927312930
H         2.79003474608179   10.18290309604784   13.10775191327242
C         4.05351812953947    6.24268410424752   15.68393855356376
C         4.25767551567956    6.41749034152361   17.19591297513715
H         5.29109001253153    6.20114079346690   17.45779211173334
H         3.61547062937164    5.73004897537526   17.74544613619934
H         4.02769182220159    7.43789611470916   17.49676947738526
C         4.22886270701464    4.76039698424383   15.31768199298728
H         5.25264833256726    4.44905361525410   15.51648497113880
H         4.02227961359331    4.61475269595685   14.25857167506398
H         3.55749436747962    4.11839235815798   15.91422018822365
C         5.13725096783778    7.04706971148711   14.95674043528211
H         5.06412245400412    8.10588137486719   15.19381174086383
H         5.07204021641687    6.91494105073478   13.87930119462834
H         6.11699609717520    6.69877081481860   15.27644976540099
C         0.26664191018161    0.77596401688310   17.95224619150621
H        -0.16544824601622    1.24083207737966   18.86230597337416
H         1.32569567339390    0.51147853165759   18.14627567161984
C        -0.54003906375765   -0.48930030140203   17.60611337240966
H        -0.42968978195039   -1.24650786424128   18.38514943520495
H        -1.60416476021437   -0.21670480827202   17.51696716112044

