49
CSD_code = CAQLOX | q = 1 | S = 0 | Stoichiometry = C15H24CuN6S3(1+) | MND = 3
Cu        1.86449561387542    2.28458811587268    2.32469645102233
S         3.02903348493318    0.29922921298065    2.33761266217585
S         0.25174329552664    2.36346737454301    4.03595927351196
S         2.15117809436480    4.23258605124006    1.20286867284399
N         4.45194001577998   -0.81137465824109    4.32316346914812
N         0.33536341810726   -0.34315989660742    4.24214982477391
N         1.34074548015623    0.69595206163910    5.87531935750836
N         4.57016711132488    1.36970866192476    4.33993367901175
C         4.03233831021946    0.30944342720145    3.68715121436235
N         0.16496739276014    6.05340959686194    1.35583861367183
N        -0.53028023578430    4.08668883345055    0.71977179742703
C         5.32939809953837    0.90002036827631    5.38363885465989
H         5.86133080499212    1.56213367908691    6.03456178883204
C         5.25616606470073   -0.44928575191364    5.37213336001911
H         5.71055352883512   -1.17572994496926    6.01275820297315
C         0.56154450902465    4.78729955198663    1.10569577440846
C         0.65568767281781    0.87839052978933    4.72241728549273
C         0.83863041764352   -1.29381115124920    5.08864627290771
H         0.70756255566159   -2.33963085903934    4.90424971807558
C         4.44734631686502    2.75017601276716    3.96845313188764
H         5.15175212983737    3.00576379822948    3.17400584539540
H         4.63581149727169    3.37929258678192    4.83538663327344
H         3.43010113641014    2.94392514115913    3.59051710997110
C         4.15368780370090   -2.15942559097168    3.92843924312890
H         3.42991658166883   -2.12768552779162    3.11613998732659
H         3.74163947790846   -2.71402218795053    4.77129447735932
H         5.05768177922397   -2.65945915564301    3.57830653554830
C        -0.37724054874394   -0.57999549564925    3.01957863721355
H        -1.11869065824059    0.20758839654336    2.88466887335656
H        -0.87265594294656   -1.54656740982150    3.06848628134047
H         0.31403144082234   -0.56796977843099    2.17201991958563
C         1.45716751073960   -0.65105805587643    6.10588601963909
H         1.95663490546488   -1.03252796139986    6.97191407265316
C         1.81993790287987    1.74585300731582    6.72923129974137
H         1.68586193465051    2.69489103424554    6.21038131565194
H         2.87400030723904    1.59064007365946    6.96140961561274
H         1.24997564898498    1.77079442935451    7.65924768070682
C         1.01707559930323    7.12927958495185    1.77811358714883
H         0.70102232299323    7.49890114590721    2.75464989675387
H         0.97781724759910    7.94569821096088    1.05593117918392
H         2.03785295858096    6.75436486055329    1.84180451724122
C        -1.61693420685241    4.92238389005210    0.74608131069373
H        -2.59712059377359    4.58361152411573    0.48363935289625
C        -0.53362228649787    2.71015766127481    0.32162507734088
H         0.16340679530867    2.14830616042896    0.96736635816077
H        -0.19821009578726    2.60378723562216   -0.71240062758357
H        -1.53652377072716    2.30302250590009    0.42653086465584
C        -1.18470999129877    6.14180399634978    1.13897624026547
H        -1.72077883676046    7.05694470482193    1.27934929112004

