61
CSD_code = CAQPOA | q = 0 | S = 0 | Stoichiometry = C24H33ClP2Pt | MND = 4
Cl        0.94863743559483    8.12636630795670    0.19798313173780
Pt        1.98976585090877    6.94686927800138    1.86178352549367
P        -0.01681680513139    5.97843670398996    2.57247524084275
P         2.89443830034637    5.94617758320761    3.66860508440184
C        -0.63069074352077    4.72034886381547    1.34676735260023
H        -0.85697647376251    3.79133754407361    1.88744457951295
C        -1.92544707677610    5.33086316836295    0.80804814915041
H        -1.67755702513531    6.15195740383386    0.13149526315162
H        -2.51210957057167    4.59294949609021    0.25825406220230
C        -2.68279555421808    5.87945114324270    2.01345606557894
H        -3.56253774386140    6.44888613757161    1.70909680089144
H        -3.02024053567489    5.05718330220354    2.64965607430098
C        -1.69311198732400    6.77291224946145    2.76589419025523
H        -1.57422728189817    7.70151532762159    2.18783014247760
C         0.32952214080841    4.93250181143025    4.03448816039128
C        -0.63120358626318    4.14101795861631    4.65396962539322
H        -1.63287946537038    4.09725942446983    4.25158953571383
C        -0.31470052775179    3.39887766981721    5.77749991650404
H        -1.06928488644682    2.78799428946053    6.25090659886598
C         0.96765167874419    3.44558005056505    6.30060896565366
H         1.21084761791798    2.88005294045968    7.18807746482822
C         1.93874034600218    4.21116037826908    5.68106668704398
H         2.93618927519661    4.24546130992592    6.09540144545589
C         1.63645914878392    4.94397569793677    4.53812151379835
C         3.49892304928709    7.09306665319397    4.99943818246302
H         3.19106584631887    6.69537447863958    5.97498543062880
C         5.02125154022164    7.01041721671972    4.87566278539384
H         5.33970640553611    7.54201532895847    3.97553424999286
H         5.51378356215927    7.46091282472649    5.73867467209437
C         5.36123022138414    5.52929392530931    4.73633232708485
H         5.13055180513222    5.00540902362621    5.66699577270832
H         6.42055605891627    5.38041684556396    4.52259106243584
C         4.49884378796578    4.99762649326865    3.58821415756441
H         4.93867240868341    5.35643975820078    2.64659052227950
C        -2.08412159489561    7.14492678544847    4.18859290341751
H        -3.00873003890358    7.72006745400400    4.18298373184955
H        -1.30510152132637    7.75498220294723    4.64420311546110
H        -2.23335431506170    6.26446717681264    4.80979928171491
C         0.42930885326536    4.45266915886454    0.28664006177114
H         0.05998053403406    3.76234288866195   -0.47044897370738
H         1.31863165648942    4.01767772259515    0.74738631482928
H         0.71147419119792    5.38609523393262   -0.20346395543275
C         2.91413354991556    8.48445832446102    4.80538805004714
H         3.37712947607253    9.20194994178394    5.48064458708374
H         1.84148326737241    8.47036828879036    4.99673184974811
H         3.07413931366464    8.81296839492570    3.77712726808301
C         4.36835260348576    3.48370157234168    3.50350869720855
H         5.34296090664984    3.03617467219415    3.31618810054872
H         3.70374084334262    3.21296367794214    2.68436877663795
H         3.96793371935511    3.05844818435315    4.42059753062820
C         3.76830006889832    7.49119445260630    1.07126068507651
C         4.31212887860996    8.77032124441346    1.12951400896183
H         3.77539006323128    9.56992277920254    1.62716092698733
C         5.53199632984599    9.05583269839152    0.53670528410620
H         5.93561493076820   10.05748433865905    0.59651006605276
C         6.23035343347621    8.06836316517247   -0.13483504589866
H         7.18158157785444    8.29200853412225   -0.59699224510537
C         5.69558769748152    6.79470011139080   -0.22124571658901
H         6.22669728307458    6.01938729234705   -0.75722306344714
C         4.47979309684925    6.51174346112805    0.37882323730555
H         4.07193797900611    5.50697165388643    0.29363578377750

