36
CSD_code = CAQPAM | q = 0 | S = 0 | Stoichiometry = C14H12ClN5O3Ru | MND = 6
Ru        9.15394624946231    8.92210522329248    8.79511381095271
Cl       11.28513068868176    9.60908616807066    9.25292475292002
N         9.99537688595037    6.97188793133573    9.09937685304513
O         9.66154310833511    7.66324839453838   12.58480086246062
C        10.52269491404369    6.08724914657378    8.26129905301678
H        10.44837383229530    6.31786573281531    7.20578487947524
N         8.90914306506864    8.76202926684496   10.72119276987581
O         8.60442946150103   12.89040458576398    8.27882005517015
C        11.13735780322791    4.92281531239007    8.68870072305790
H        11.55229922789846    4.23736895193896    7.96708925227773
N         8.54538018400703   10.73725256819687    9.06623604818593
O         6.81912816266523    7.68427523512666    7.76365332501678
C        11.21096543260036    4.66588674068550   10.05025464573478
H        11.68865220930806    3.77037935797823   10.41756388218319
N         9.62324768735894    9.75914359955778    6.88287096896673
C        10.66265755983842    5.58621478364417   10.92447727908500
H        10.68868223278216    5.46311016516934   11.99639092919566
N         7.71012339737905    8.25183178123783    8.26186834291286
C        10.05802617013138    6.73045077442399   10.41831564687654
C         9.51871468969719    7.77693907637727   11.37670623935237
C         8.59324628377276   10.01887362751739   11.37763319475293
H         9.52857926672138   10.46612064909263   11.74496224231624
H         7.94046642199710    9.84010597403808   12.23940075169357
C         7.92635546567865   10.95459453991845   10.35513181121230
H         6.85743396249589   10.70824929618023   10.27146540118505
H         8.02708984039392   12.00580684555576   10.64540387818636
C         8.82728031458131   11.69269327889833    8.18898359643447
C         9.47698821312226   11.09288104787789    6.95239992449891
C         9.90196787308746   11.92939671067354    5.92836061107322
H         9.75410914569269   12.99131667107112    6.05233784300628
C        10.49915476574838   11.38090869155415    4.80794071329261
H        10.84862408793390   12.00993801991251    4.00345536918037
C        10.64024408807910   10.00241980447146    4.74304278257911
H        11.09689911043012    9.52636996872102    3.89005242747997
C        10.18862677516904    9.23409811606639    5.80258378469678
H        10.28356142286370    8.15558196248953    5.78280534865007

