99
CSD_code = CAQQIV | q = 0 | S = 0 | Stoichiometry = C40H56P2Pd | MND = 4
Pd        8.64594643922005    0.88993114934929    4.33068966750292
P         8.94198906546737   -1.03615316833365    5.62859155381773
P         7.83229608271452   -0.51443867700677    2.63503834910449
C         9.28513064557446    2.67424922522410    5.17608351444358
C         8.80063761946597    2.90194327458582    3.87701167887602
C         8.49680180888651    2.90076557930142    6.38572258526816
C         7.12324039847703    3.17569746445626    6.37608527896572
C         6.42964352743072    3.37026429703511    7.55484811476762
C         7.07591180398760    3.29230125272963    8.77755394473625
C         8.43536527397032    3.02504948870757    8.80791135428670
C         9.13388803753521    2.84257821418729    7.63240859184780
C         9.63666412839587    2.90010700201361    2.68036602856116
C         9.06315567213492    3.26736804149588    1.45331762926242
C         9.79572589604203    3.26399169974877    0.28407821703677
C        11.13705393877956    2.91479558321242    0.30094712118609
C        11.72864267000385    2.56708833514805    1.50455980018484
C        10.99553096968825    2.55440942936746    2.67608927310716
C         8.57657325550421   -2.47014880129007    4.52563037473392
C         8.84032960778381   -3.78296030355475    4.90905774007567
C         8.55931505296731   -4.84994849560537    4.07560215730295
C         8.01913291639928   -4.62111219499478    2.82318040710277
C         7.78486102283517   -3.32267318844905    2.41179249950303
C         8.05558273153023   -2.23802443973466    3.24064023656520
C        10.33335403055423   -1.68958828405957    6.69792199434254
C         9.70248206579545   -2.19782261443220    8.01016106238024
C         8.19636599740367   -2.39719189411165    7.84247123613411
C         7.70285557077578   -1.22064106924813    7.00708290975205
C        11.38017543688108   -0.58844741378899    6.94362674031787
C        12.50930908285806   -1.09699684594782    7.84021306950838
C        11.96760357170399   -0.08984893500978    5.62567482498842
C         6.25456036422880   -1.26677422099614    6.51192010141277
C         5.29328873476986   -1.73904480998944    7.60221595530160
C         5.85335518242691    0.13120066903861    6.04757023710571
C         8.83778585214868   -0.44292976732008    1.04963470084765
C         7.85764890019591   -0.66330047807068   -0.10501889147955
C         6.53827545426453   -0.03343071928431    0.32044154134827
C         6.20976944069782   -0.60272004160733    1.70045157256717
C        10.08601307423759   -1.32734132455762    1.03940270193873
C        11.00407031273531   -0.92120474100344    2.18803030827829
C        10.83431170225419   -1.19954023504449   -0.28748821343139
C         5.05343004789536    0.06798432265497    2.45467374411828
C         3.72800618979335   -0.13482404073788    1.72048699746689
C         5.29836671133999    1.55024347378129    2.71677630968842
H        10.36277679425822    2.66336279488448    5.34868841982160
H         7.83948344624271    3.40186065593930    3.74785488947983
H         6.58255893725714    3.23247919868050    5.44018512204751
H         5.36984027538922    3.58329878651238    7.51975462500414
H         6.52727653921668    3.44083315668212    9.69630753445210
H         8.95307397352022    2.96677260938902    9.75558972215430
H        10.19739687411411    2.64366254063833    7.66910401553313
H         8.01773230264716    3.54779427733417    1.42723992441062
H         9.32211375865889    3.54192652321376   -0.64754488595374
H        11.71517440561843    2.91828970954577   -0.61176166385730
H        12.77775602764665    2.30383664901292    1.52996958677689
H        11.49345648304240    2.27735098063005    3.59637706328554
H         9.28733891512985   -3.98994054001101    5.86824794945028
H         8.76790598680018   -5.85826707583671    4.40291119207135
H         7.79882546192575   -5.44744524815665    2.16302784180696
H         7.39254353594770   -3.15586944417983    1.41936715578835
H        10.83121232889629   -2.50139407341784    6.15574414373393
H        10.18466372956965   -3.11748617509555    8.34582423947805
H         9.85328654501240   -1.44065591953750    8.78256984946962
H         7.96687148865227   -3.33781967836664    7.34130656151820
H         7.71260699306750   -2.41535513179177    8.82045746764826
H         7.83073277874237   -0.30302629103410    7.60281350200464
H        10.87809903601333    0.25093476122134    7.44125823042268
H        12.14317457057137   -1.40352966726665    8.81628518060608
H        13.00178859221107   -1.94913805885319    7.37487385997636
H        13.25102932483403   -0.31503550175746    7.98863879965095
H        12.70898232678198    0.68511415728221    5.81195841016222
H        12.45053258535840   -0.90485624667409    5.08920401938102
H        11.17892257894474    0.32848455350404    4.98926976057692
H         6.19044603493536   -1.96415312669572    5.66498513949286
H         4.26764314537426   -1.67052994371995    7.24568481425554
H         5.38918791132964   -1.11309631130174    8.48705189928553
H         5.48532408414610   -2.77184221278899    7.88118683774549
H         6.58826011133504    0.52313302757357    5.32114071603577
H         5.82222744571165    0.80647296278954    6.90095137632560
H         4.86837306270214    0.11903596246772    5.58651472633698
H         9.17544376507516    0.60320245816639    1.01069422871132
H         7.72153557946237   -1.73034936225387   -0.29563553136949
H         8.23087501712625   -0.20364287842871   -1.02128974685532
H         5.74421589989162   -0.24654574487375   -0.39672930891064
H         6.67094928315778    1.04779777036315    0.38420914347990
H         5.94814015082908   -1.66149122876727    1.58920089494748
H         9.78986675217313   -2.37461310213294    1.17210795221512
H        11.45993471399930    0.04219793341038    1.97322572856466
H        10.43312129295001   -0.82924245775953    3.11825322493356
H        11.79157026705294   -1.65691623835740    2.33637552771436
H        11.06672855080218   -0.15529313581726   -0.48646926037741
H        11.76721996842998   -1.75740782685756   -0.24312920447450
H        10.24512698542362   -1.58917409531779   -1.11359115749521
H         4.98473964912197   -0.44257929033170    3.42316310476061
H         2.90587539954394    0.25458232748800    2.31710813762578
H         3.73096970887339    0.38875554780840    0.76728189837569
H         3.54409182304163   -1.19135100130560    1.53475966117888
H         4.54141395790811    1.94263382059047    3.39290603528218
H         5.25724637843320    2.12276248252337    1.79280938549089
H         6.28297017725255    1.68730956309074    3.17665623896248

