51
CSD_code = CAQRES | q = 0 | S = 0 | Stoichiometry = C18H28I2P2Pt | MND = 4
Pt       -0.31479761504385    5.27665967700641    0.23776348398601
I        -2.20999603379489    5.73195195352602   -1.49027127301303
I        -1.89921433924738    4.43095003444956    2.12467116760313
P         1.17137856005395    6.24964635904530   -1.16397494866697
P         1.46730737996321    4.68642620412051    1.50150750003416
C         2.85213388007311    6.01449937506681   -0.49411979777512
C         3.98448511345491    6.53059771499751   -1.11608394441686
H         3.88648588640805    7.12639970632073   -2.01218272576587
C         5.24057964430511    6.29156431645849   -0.59028934430395
H         6.11475348729702    6.69490901464127   -1.07929621893963
C         5.37813626578809    5.52982228987358    0.55968741892568
H         6.35998249473539    5.33447535366519    0.96445130142468
C         4.25802254809098    5.02611920934408    1.19455314750026
H         4.37489169304653    4.43588581341698    2.09212524784159
C         2.98862609465888    5.27123970269767    0.68074636590547
C         2.23086238171510    4.77297522452350   -3.35981261016004
H         2.13258874662086    4.53775932417331   -4.41798788363849
H         2.03237448422522    3.86546356875527   -2.78971053256837
H         3.25854364593004    5.07754357358977   -3.17018449716813
C         1.23787541914104    5.86213846407101   -2.97962666323386
H         0.22748843914812    5.50235948233724   -3.21694086724300
C         1.43633326349098    7.20991458961389   -3.68195372243598
H         1.08373507714539    7.15536360039993   -4.71267332034332
H         2.49565670228935    7.47740832959587   -3.70694390319722
C         0.65006222311121    8.24616973784484   -2.88358446548903
H         0.84840461171269    9.26036303700575   -3.23315604479713
H        -0.41925158872898    8.05169750826478   -2.99084045522809
C         1.05442849993693    8.08654473083431   -1.41534872278118
H         2.06687788622171    8.48673347472468   -1.26576484179854
C         0.10849013178522    8.74605329218349   -0.42018492692478
H         0.13085342330871    9.82893342228844   -0.52956570704142
H         0.39988351626929    8.49846942857505    0.60319368331672
H        -0.91556440527974    8.41267762618438   -0.57916160820917
C         2.35521346817129    6.44952593467976    3.55563617475884
H         2.29824381840399    6.70344002844524    4.61249989238257
H         1.91175219582818    7.26571361872691    2.98528672309010
H         3.40477254538994    6.36969083340805    3.27792595565470
C         1.60144366086006    5.15312640728011    3.29484090726482
H         0.56095990169998    5.28965028776154    3.61931460171250
C         2.15974404226069    3.91401678771103    4.00311860018402
H         3.25024504572863    3.89238067280843    3.93454706499230
H         1.89425829023456    3.93041813701274    5.06092879071448
C         1.56324408442492    2.69616155456500    3.30285931462136
H         0.49126344145403    2.64952151057952    3.50631935324966
H         2.01666743136945    1.76757797250623    3.65251288319438
C         1.79096487054765    2.88166898993442    1.79995128904629
H         2.85079916514628    2.71318610997531    1.56373175917043
C         0.93828868152818    1.98412412314978    0.91270103860927
H         1.21885293928733    0.94029736798453    1.04230900788571
H         1.07403339980169    2.24825562673858   -0.13843867346871
H        -0.11676449997009    2.08252889714596    1.16131502552953

