50
CSD_code = CAQRET | q = 1 | S = 0 | Stoichiometry = C21H18N9RuS(1+) | MND = 6
Ru        3.19975496633539    2.47756251366831   10.29947170170054
S         3.27280046812974   -1.47845859430156    8.15741451766666
N         4.84947032013264    3.52176329107855    9.70613841974362
N         4.88150292211639    3.30742593738311   12.55383548247784
N         2.16216152437397    2.59968529218336    8.60960708756997
C         3.65465952641501   -0.17129620409515    8.95201417611709
C         4.79417535909967    4.57606115249815   11.86815145570355
H         5.35152748361149    5.33539161299572   12.43065483740802
N         4.28067746679728    2.23000839779342   12.01337942297777
N         2.53191415998155    4.20183864668781   11.10055057120066
N         3.41646376646152    4.98321665055605   11.75476102257267
C         2.81220601165128    6.10574486159546   12.23302770661854
H         3.35181753002222    6.84969394004669   12.78149042070196
N         5.37659648329341    4.42509210876550   10.55468978596818
C         0.92897937764546    0.92131114989836    9.72432755843367
N         1.62470769414949    1.36986076892479   10.79448848592832
C         6.51597946770824    4.96026327087457   10.04302680444584
H         7.08286451621982    5.69850705080417   10.57209879820874
N         3.99144989086027    0.79229192981087    9.55057965783258
C         5.64310784829161    3.48275412117858    8.65274433874486
H         5.44067277726283    2.81838634076558    7.83380185568444
C         5.62458909184938    2.95393311499821   13.63507221179049
H         6.17988179831020    3.67332115532105   14.20110915559162
C         1.23326347949379    1.62471437550118    8.47895472714239
C         6.70984057731813    4.38012362143143    8.81732581196964
H         7.50835796990219    4.56648605411045    8.13048880205817
C         5.47841825338854    1.60074835555029   13.79028315609631
H         5.91962973358049    0.98283919727371   14.54368816056681
C         0.60902682907437    1.37413518630815    7.25839914314666
H        -0.10423040741536    0.57249993045984    7.16736193610517
C         0.41126906229769   -0.13909972766514   12.18902413566694
H         0.23222206919318   -0.52407296671199   13.17962187335291
C         1.34600341975085    0.85966313283116   11.99277420561771
H         1.89777848981008    1.26738606783724   12.83145049553484
C         1.49492345589891    6.03199720476792   11.86714669923458
H         0.72333120587461    6.74312143786513   12.07416714738447
C        -0.01883790170052   -0.09303331197358    9.84635323925566
H        -0.53801488984463   -0.45901614749337    8.97680528963261
C         2.43426448127606    3.36402861173178    7.55327868309913
H         3.15788792541279    4.15637178997999    7.70400772543689
C         0.92790176845157    2.14896971031346    6.15921717125393
H         0.46992404015668    1.95857096642852    5.20203824264563
C         1.36718472312496    4.82597235190567   11.16209943697952
H         0.48905506828128    4.40395870560643   10.71001932482802
C         4.63193078186038    1.19169271077390   12.74803862495318
H         4.28921648311056    0.20329649170764   12.50582651350997
C        -0.27109191900140   -0.64270270631540   11.08910763365357
H        -0.98583784144309   -1.44196290063433   11.20077767690264
C         1.84482609936996    3.18029587802168    6.31696312741951
H         2.10849659205215    3.82205747095462    5.49224554145828

