89
CSD_code = CAQSEV | q = 0 | S = 0 | Stoichiometry = C48H24F12N4Pt | MND = 4
C         2.38244582947852   -0.53168259313253    5.75417968954485
C         1.88971759989042   -0.62340031877325    4.40905518351863
H         0.89167433637028   -0.90385459621666    4.13700800416657
C         2.92110282133083   -0.31545050455430    3.59139338851293
H         2.93146957341615   -0.29474257660048    2.51984233748062
C         4.04997690057579   -0.03391115352310    4.43222991315307
C         5.31037541313358    0.30255033352385    3.94771833471335
C         6.41903171543643    0.52484223014292    4.75865872418655
C         7.71511687668277    0.88677547588052    4.25909798316314
H         7.96082966322505    1.02097693368841    3.22452580913870
C         8.52537245041137    1.02361605506534    5.33244948461362
H         9.56773455279595    1.27267401952869    5.34577004294181
C         7.72511571119187    0.76183042315049    6.49501733340666
C         8.21424271998511    0.80108770694769    7.79719460104173
C         5.47834449624125    0.42868752601890    2.48349512698123
C         4.82144407873572    1.43942244913949    1.78782851249918
H         4.19716152337883    2.13559886257604    2.32682615414834
C         4.97114016714203    1.56334761569294    0.41953768901607
H         4.46298720233364    2.34928063630630   -0.11753325602165
C         5.77725050358828    0.66326804663015   -0.26395697049084
C         6.43992372123995   -0.34983566984808    0.41802419737026
H         7.06237633583105   -1.04482504925873   -0.12452077125711
C         6.28939564443172   -0.46267390658458    1.78660590521262
H         6.79471826842025   -1.25181100449553    2.32209761220597
C         5.97356390317322    0.79228229094074   -1.74706781722622
C         9.63685467783762    1.15319694275535    7.99790586179977
C        10.09928426757224    2.42656477437995    7.67604005338369
H         9.41021652461856    3.15911950543942    7.28434461433103
C        11.42648374016100    2.75764543883739    7.86615950111429
H        11.78713523368415    3.74519806282411    7.62171059276385
C        12.30469538302245    1.80899211196730    8.37712643413102
C        11.85767586804781    0.53588677864010    8.70074783273857
H        12.54607963230555   -0.19531027293082    9.09539185149836
C        10.52625050993258    0.21480984216893    8.51252492426429
H        10.17121879245175   -0.77450029285749    8.75790452419488
C        13.74181179757861    2.19945100880573    8.56972678479440
N         3.70242215203045   -0.18425367638568    5.74356901349461
N         6.44787432864928    0.45719645105914    6.12179622603850
F         5.01650167099801    1.51548948919064   -2.34493325819154
F         7.14301353533593    1.39237173412858   -2.04942813739511
F         5.99760886809853   -0.39844387443726   -2.36858858313964
F        14.31460742804396    2.60285151952438    7.41982501585361
F        13.87551982592990    3.22811353744890    9.42872108376119
F        14.50521167665058    1.20751241642030    9.04570445604060
Pt        4.91274239253371   -0.00029300668941    7.33888448848193
C         7.44288346259731    0.53169555065841    8.92362149401270
C         7.93561639265049    0.62339365161395   10.26874540547481
H         8.93366034093248    0.90385212675440   10.54079485460920
C         6.90423469126831    0.31543042332961   11.08640458686201
H         6.89387033286634    0.29470917462071   12.15795728280589
C         5.77535754591465    0.03390514307958   10.24556804242751
C         4.51496107303991   -0.30255413682256   10.73007931877766
C         3.40630909662379   -0.52485011475688    9.91914310066675
C         2.11022656839853   -0.88679118163940   10.41870293512401
H         1.86451416430910   -1.02099881862396   11.45327363586732
C         1.29996504940197   -1.02362426601141    9.34535503079434
H         0.25760011769670   -1.27267648903977    9.33203504861471
C         2.10021736688993   -0.76181909200870    8.18278797408017
C         1.61108373874979   -0.80106286243031    6.88060902267483
C         4.34698390278860   -0.42869146393751   12.19429818856129
C         5.00387937683768   -1.43943384605647   12.88996133843664
H         5.62815725717275   -2.13560916342463   12.35095692220277
C         4.85418445029670   -1.56336871330913   14.25825316506711
H         5.36233349887251   -2.34930903646647   14.79531842017144
C         4.04808038149713   -0.66328646870848   14.94175475477099
C         3.38541451187450    0.34982580551372   14.25977620786869
H         2.76296049155561    1.04481035639374   14.80232765164538
C         3.53593783463400    0.46266862057992   12.89119299013197
H         3.03061381103274    1.25181082534643   12.35570943721004
C         3.85176830106255   -0.79231099873880   16.42486654148461
C         0.18846859273636   -1.15316165610052    6.67988729739082
C        -0.27396953098908   -2.42652964758634    7.00174629813161
H         0.41509540075040   -3.15908640738663    7.39344148296274
C        -1.60117054013607   -2.75760055557056    6.81162715246464
H        -1.96182846405305   -3.74514987305270    7.05607683529662
C        -2.47937050086780   -1.80893886653877    6.30065984338453
C        -2.03233981328422   -0.53583870943662    5.97703596048428
H        -2.72073866755859    0.19536370017254    5.58239420597341
C        -0.70091473111242   -0.21476944273456    6.16526160526535
H        -0.34587780372188    0.77453875679183    5.91988085849477
C        -3.91648991948516   -2.19938330740830    6.10806496958013
N         6.12292256265185    0.18421162891515    8.93423045249904
N         3.37747604621293   -0.45724664436147    8.55600477208299
F         4.80883898322947   -1.51551299313282   17.02272473229951
F         2.68232538239388   -1.39241358848131   16.72722726324963
F         3.82771488709144    0.39841002878082   17.04639691620692
F        -4.48928495217195   -2.60276737316747    7.25797304215795
F        -4.05021106619733   -3.22805139758921    5.24908140046249
F        -4.67987993837747   -1.20744040056442    5.63208106929137

