29
CSD_code = CAQTUJ | q = 1 | S = 0 | Stoichiometry = C8H18AuN2(1+) | MND = 2
Au        9.00475055960370    5.86758239533061    4.45224020500577
N         7.55717647290356    5.86280130259270    2.94451396135353
H         8.03509984100465    6.07822607295937    2.06863738755387
C         6.83199877504024    4.59605712944263    2.70788978846719
H         6.40690648680916    4.26525264630947    3.65652046443774
H         7.50839625064715    3.82757472120569    2.33740805822085
C         5.72217036333477    4.95859612046000    1.71495842729124
H         6.05006371048552    4.78202735199032    0.69156297227210
H         4.83299657026963    4.35821934797425    1.88732611551635
C         5.46549796549117    6.45834963853158    1.95575213588084
H         4.44290981469740    6.65286934077675    2.26768430361266
H         5.65211498937962    7.03295917423752    1.04983424238828
C         6.45850167060015    6.84611480948280    3.05777275901110
H         6.83836737895402    7.86153783232738    2.95792951844770
H         6.00293919962911    6.73484128673938    4.04268714415283
N        10.45229461933708    5.86282080023521    5.95999515005157
H         9.97434103115156    6.07836933088261    6.83582448852974
C        11.17735898496773    4.59603741928338    6.19676525862808
H        11.60225803169550    4.26497863145346    5.24814060699025
H        10.50089882801844    3.82772653451030    6.56748343884914
C        12.28739613461234    4.95856368954920    7.18949504751208
H        11.95986193220497    4.78168191927677    8.21294887912762
H        13.17662305395528    4.35838387056774    7.01670054781076
C        12.54377339186145    6.45841407026196    6.94898858333421
H        13.56641862350529    6.65325741841320    6.63746159120100
H        12.35665382761039    7.03285270223075    7.85491401814403
C        11.55103930779837    6.84604894023612    5.84670030659341
H        11.17121870240430    7.86151985685010    5.94627736083403
H        12.00677348202737    6.73453564588883    4.86188723878201

