100
CSD_code = CAQTIZ | q = 1 | S = 0 | Stoichiometry = C48H45ClN2P3Ru(1+) | MND = 6
C         0.21700121625690    5.18162138711234    6.86931284340485
C        -1.04391773188416    5.73346102556760    7.07573923032732
H        -1.80452932985493    5.66757888886842    6.31229012145024
C        -1.32472077073412    6.37690992343310    8.26759708231985
H        -2.30252866737026    6.80575259614181    8.42589200100247
C        -0.35586200318700    6.47959702987500    9.25308351041222
H        -0.58086721889063    6.98763901982634   10.17848387674060
C         0.90158172785964    5.93558543958811    9.04730883681148
H         1.66133723402732    6.02278061803530    9.81023049708310
C         1.19087020958235    5.28788955703083    7.85968759161899
H         2.17298370201335    4.86338557636629    7.69231523780864
C         1.21226307234371    5.78842570241565    4.30583821925397
C         0.52002496846679    6.29786363685635    3.21273685592803
H        -0.41806167349690    5.86803014348750    2.89362255839095
C         1.03247492432438    7.38123161829577    2.51864723301624
H         0.48849448008209    7.77827935074898    1.67435900204718
C         2.23099122600426    7.95832021215315    2.90389317518341
H         2.62100767325467    8.80493811426292    2.35923271571987
C         2.92656946184285    7.44909775032408    3.99022170314764
H         3.86162966749725    7.89560199276926    4.29384393633936
C         2.42171716274982    6.36897296097321    4.68815842328959
H         2.96603884335834    5.95719704343152    5.52793993584207
C        -0.84751402896729    0.41104560063565    4.59768730395368
C        -1.15277995085212    0.32982667649873    5.95082372716108
H        -0.55185651141423    0.87827649115410    6.66343250475593
C        -2.21845577141947   -0.44111360330746    6.38156685483874
H        -2.44946996739271   -0.50280782954386    7.43475808285896
C        -2.98901820429761   -1.13188488205091    5.46195921776911
H        -3.81633381184234   -1.73856652845905    5.79674320905026
C        -2.70300738916939   -1.03641861098072    4.10880256832028
H        -3.31135462432386   -1.56362369385315    3.38955563664338
C        -1.64291075952242   -0.26378295993471    3.67410556164229
H        -1.42836191155009   -0.18632064659179    2.61735511799301
C         1.08864004942862    0.70394179808420    2.51358290470255
C         1.55426971471485    1.46149313849584    1.44049171204839
H         1.50492321381519    2.54093532987995    1.47064397223925
C         2.08918597412526    0.83860661150944    0.32711318812143
H         2.43579277263213    1.43396622332240   -0.50472768864012
C         2.18111861920145   -0.54294259140352    0.27633562081020
H         2.60146149332002   -1.02554694295736   -0.59259240767012
C         1.73184458437699   -1.30172358835335    1.34467209511712
H         1.80218414166538   -2.37833817223478    1.31390968998158
C         1.19118549472112   -0.68490119468900    2.45792365382833
H         0.83848356853995   -1.28139677645269    3.28637432240458
C        -0.55912905239805    2.89654499757879    3.39462527820655
H         0.01733411721759    3.46361508616493    2.65709821636153
H        -1.45285880223249    2.48713480184024    2.91262478466680
C        -0.90856516092893    3.79770230303340    4.57431917888989
H        -1.43570621249303    3.22356599302858    5.34716765947611
H        -1.54151849009051    4.63499523845923    4.27016726754455
C         4.62519015284948    0.40588421542651    6.99496605962430
C         4.43525605055091    1.06668925626088    8.20108155657117
H         3.76273469609356    1.90923988825934    8.25615700070287
C         5.14610380524427    0.67683704169051    9.32424400594570
H         5.00223757322765    1.20228411899789   10.25699273137552
C         6.04598942672565   -0.37149922248266    9.25263499913225
H         6.60055241258426   -0.67058387072014   10.12901479493692
C         6.24046504883524   -1.03305840072575    8.04951080591580
H         6.94676739379446   -1.84720435904130    7.98713535218864
C         5.53321907887573   -0.65112525567972    6.92698854393458
H         5.68786970052015   -1.16713204460417    5.98941311248432
C         5.06386577121783    1.09278495609384    4.27780622180441
C         6.28749553573785    1.61337012267042    4.68670873144197
H         6.46884677159984    1.80207929388088    5.73549758954239
C         7.26458668372591    1.89358943835417    3.74742112127300
H         8.21565093978392    2.29200446917728    4.06765865233733
C         7.02667706797625    1.66334579378126    2.40204969750318
H         7.79526860510778    1.87554699028669    1.67397599187644
C         5.80027679200406    1.16420546987645    1.98970219175467
H         5.60935883009149    0.98757856857148    0.94087653205017
C         4.81682124519819    0.88930657537317    2.92105123628497
H         3.85224987143794    0.51450601792530    2.60455951650184
C         3.09153683894656   -0.85496374091851    5.09797909856606
C         1.93755735233900   -1.20558280834446    5.79373760738788
H         1.48189984407179   -0.47465676226146    6.45216363733801
C         1.38826625147954   -2.46592438258711    5.65621906142569
H         0.48914690833645   -2.72676369917157    6.19518193009883
C         1.99575108230535   -3.39130593925601    4.82122149234621
H         1.57107290677221   -4.37725395499980    4.70830923629731
C         3.15065668879462   -3.05162244451255    4.13620246735870
H         3.62924789547678   -3.77600442959173    3.49404503674340
C         3.70289020332818   -1.78918985111082    4.27195779778716
H         4.60482520551862   -1.53782392355560    3.73222693939018
C         3.63199699672073    3.77950208420477    3.02386172151950
C         4.47483613871711    4.49345189676224    2.11741306498406
H         5.46391378433634    4.60120379380289    2.56335192627182
H         4.05692416352459    5.48308543839169    1.92848556900111
H         4.56475672466777    3.94505973681544    1.17964437962526
C         1.21638452489693    2.08866970012594    8.22220898760144
C         0.90047115983860    2.01807135322130    9.61551455365750
H         1.60272439275850    1.35187773065831   10.11801608022569
H        -0.11319214279624    1.64052157743999    9.75239512768191
H         0.97158175196969    3.01436118788753   10.05320475524702
N         2.93153531855426    3.19250837233530    3.72432903663752
N         1.45198112169065    2.11041645841261    7.09290582893628
P         0.68168811668849    4.37105806365001    5.31281922327538
P         0.49358601380185    1.50681169610336    4.03289190739754
P         3.72047565870330    0.81672960138218    5.46286768825834
Cl        3.95338394272530    3.68738476249491    6.36354107608489
Ru        2.11483643345580    2.53438756326902    5.34440450339972

