36
CSD_code = CAQTIY | q = 0 | S = 0 | Stoichiometry = C17H11N3O4Pd | MND = 4
Pd        0.61888427635670   -1.72999915239628   12.77273128729375
O         0.33017934169241    0.19808656017770   12.39255402469835
O         0.70866848377885    1.66921134952265   10.78177596315623
O         0.06722222324926    1.51490678623478    7.62930096220901
O         2.18489421773745    0.81224028275675    8.04982759417332
N         0.65045192428961   -1.48428691691919   14.73413043559776
N         1.14042758886905   -3.59819760902055   13.31517930916009
N         0.35823388848530   -1.85631928092673   10.78004228000807
C         0.75328631566640   -2.63486490415110   15.45299872574715
C         0.58228597442319   -2.61271208647041   16.84360310252190
C         0.32081269935490   -1.41702719915173   17.47652842540934
C         0.23365515059262   -0.24886800401429   16.71885693383817
C         0.39918574603801   -0.33030019774728   15.34786215248308
C         1.09128198140252   -3.80267571966073   14.66699909956966
C         1.42818568157826   -5.04831753836102   15.21227936781095
C         1.85823920454462   -6.06567281212376   14.39168763659460
C         1.98177517128157   -5.81487443257156   13.02336644337301
C         1.61325452111913   -4.57576834311469   12.54004252917776
C         0.51589530989135   -0.65056745518750   10.19598490239840
C         0.48977989580759   -0.50735012097794    8.81432560268777
C         0.21982615558181   -1.61791646712945    8.02668791452634
C        -0.06385253003331   -2.82529866794649    8.64575843443729
C         0.03755938801383   -2.90866299402164   10.02426270797130
C         0.55743877989589    0.53631720908137   11.16175273511427
C         0.96421633022153    0.83621888054651    8.07652489439206
H         0.64702661107738   -3.52591799987884   17.41197542381439
H         0.18483823423052   -1.38499781564101   18.54628738287190
H         0.03599976289472    0.70171090617219   17.18510481141116
H         0.33364342388705    0.54590975712663   14.70924979870276
H         1.36259594624631   -5.20057254160344   16.27675763214571
H         2.11710069258426   -7.03030916798071   14.79830415158274
H         2.35626760216877   -6.56901106421308   12.35167284245057
H         1.71381734120461   -4.35320149700191   11.48417209928285
H         0.20508519021822   -1.52546914307306    6.95133932533609
H        -0.34653744902156   -3.69515730582633    8.07328577438912
H        -0.16882507532744   -3.84208529451308   10.53898729365898

