73
CSD_code = CAQVEV | q = 1 | S = 0 | Stoichiometry = C24H46AuN2(1+) | MND = 2
Au        2.98008066157116   13.65021796883061    1.13622238723116
N         3.95974955183362   15.56926043943595    1.51895309211429
H         3.68357545402729   15.81161305741531    2.47148084358733
N         2.00612881689935   11.72798667501863    0.75584484551257
H         1.17522899006484   11.97006824556604    0.21426968421247
C         5.44281173291144   15.49956531085453    1.53378495524458
H         5.77646815983836   15.42330736337105    0.49515682240822
C         6.07934860064658   16.72800300429211    2.18697672717626
H         5.73088816137825   16.80797759484420    3.22031840254961
H         5.79338155207919   17.64006578978081    1.66146436662669
C         7.60263144820909   16.60966845435996    2.17365004064760
H         7.95319141014510   16.57910603863140    1.13994885823063
H         8.03659410271257   17.49082835480552    2.64666171897039
C         8.05494029475662   15.34994886940054    2.90223869472651
H         7.76940112235846   15.41263878159290    3.95421043445343
H         9.14044734170837   15.26478391142330    2.85561988820304
C         7.41269404644173   14.11966041045048    2.27108011999735
H         7.75753701536187   14.01556000979196    1.24039341094428
H         7.70700938084336   13.22187237565057    2.81549392840268
C         5.89147933540567   14.24825362126242    2.28612515174391
H         5.44087078582896   13.36268474358315    1.82383806028337
H         5.54285938625024   14.30310351318969    3.32042559540109
C         3.37939026104894   16.61458171182306    0.64012564096049
H         3.91925012763583   17.55619039606325    0.78570742296601
C         1.91982480727379   16.83313824020869    1.03226900347211
H         1.85787259328041   17.14631424780474    2.07750521183656
H         1.38066841895230   15.88427395919470    0.93234990858948
C         1.26555636310337   17.88618822230560    0.14119750014348
H         0.22099097868534   18.00739151913807    0.42938003053182
H         1.76511550541227   18.84544478474967    0.28823565194966
C         1.36267473743029   17.48177278689933   -1.32541953092883
H         0.91874449517168   18.25546217048020   -1.95152818727129
H         0.80321595447969   16.55781593229982   -1.48828947546601
C         2.82058969841057   17.27280656185533   -1.71846661352503
H         2.88705569730535   16.95935618526656   -2.76065494279352
H         3.36278587591615   18.21496299316839   -1.61930845581311
C         3.47470833223315   16.21724271353730   -0.82948684317973
H         4.51689894284062   16.09125846571494   -1.12490149355543
H         2.96753483515238   15.25550449608597   -0.96688632527236
C         2.79041496906181   10.80351624246878   -0.10146748541417
H         3.57960474796213   10.37157096056674    0.52023850672183
C         1.92911306589300    9.68319544186048   -0.68811622189791
H         1.13221267933970   10.12222717019175   -1.29467492152385
H         1.46580213021152    9.09360074185753    0.10407728994036
C         2.77664134416482    8.75765553662687   -1.55946441777745
H         3.54237645904345    8.28228711853550   -0.94302644398394
H         2.14403236853235    7.97073887654374   -1.97072592035367
C         3.44194953262885    9.53628045547694   -2.68788711749596
H         2.67698700735993    9.95153613012101   -3.34708004858541
H         4.06648837885423    8.86830949919584   -3.28075569121101
C         4.29145627249968   10.66575074157444   -2.11591646652714
H         4.73863335093289   11.24504975374696   -2.92430653207838
H         5.10123945210037   10.24585829193770   -1.51592762568313
C         3.43769393536058   11.58355611288039   -1.24410597498347
H         2.65752257539291   12.04206599324233   -1.85681653748293
H         4.05986215725456   12.38608265223473   -0.83221248702007
C         1.51582576862633   11.14908213175590    2.03116308402200
H         1.09813312560197   10.15415679933565    1.84442037669789
C         2.64290598559348   11.02260450638423    3.05119820715332
H         3.08597773690724   12.01235674715790    3.20950009331745
H         3.42551025359281   10.36174596890251    2.67679068723291
C         2.11332519198329   10.48121848669074    4.37741334655503
H         1.72167308069768    9.47374515092796    4.22571413578017
H         2.93245636402741   10.41488523184812    5.09396498899459
C         1.00911209105957   11.37869648993504    4.92421424272598
H         0.62517334393011   10.96545028774676    5.85666024194237
H         1.41538674185643   12.36950521869801    5.13970429949723
C        -0.12183371975925   11.50008638493565    3.90924955517693
H        -0.89851513097583   12.16439959794289    4.28905975369570
H        -0.57235684358113   10.51922937462437    3.74714805802995
C         0.40494678353007   12.04018635642572    2.58199734631171
H         0.80272958618671   13.05037556527596    2.73089378377955
H        -0.41337576147006   12.10421406220972    1.86038936313786

