55
CSD_code = CAQVOG | q = 0 | S = 0 | Stoichiometry = C15H36NiOP2 | MND = 4
Ni       -0.54631617480894    3.72223483158101    3.45103510240517
P        -1.63270343355747    2.70134139118450    5.01187944197383
P        -1.21980985546190    5.66071264164887    4.27798678169848
O         0.44038098191132    4.76116230073105    2.27873131542550
C         0.01069888567196    2.10593806179367    2.48090041450416
H        -0.41092522728116    1.16230939527136    2.84274388985797
H         1.10357385530830    2.01073589221920    2.51080168712286
H        -0.28743515413641    2.20989235914963    1.42898290995864
C        -2.70544413691279    3.93248057573114    5.91658077236514
H        -3.67931195848714    3.89542051900477    5.42186093736502
H        -2.84538600609581    3.60783368050364    6.95241944691828
C        -2.16496107848031    5.36318025069923    5.86010335007100
H        -1.46120357405447    5.52521549954957    6.67947175137850
H        -2.97771240806634    6.08565064220308    5.97062517326629
C        -2.48059047540416    6.51696321722327    3.20271023784045
H        -3.03582597654227    7.25514413199485    3.79531063013789
C        -3.43950975091627    5.44797242267992    2.68677529445859
H        -4.03038395474460    5.02284020607896    3.49565225210280
H        -2.86054510252697    4.64956373239056    2.21549195562222
H        -4.12450105160000    5.86133196923027    1.94744101737995
C        -1.77319924673349    7.18917361170600    2.02971027088207
H        -1.29097178565191    8.11643554938666    2.33002576940337
H        -2.48537763775423    7.42052858960328    1.23868477422828
H        -1.01730161154148    6.51000145597045    1.63531018459572
C        -0.05310369915568    7.04176620636787    4.70818664158648
H         0.31912466509460    7.37594821383425    3.73390744761641
C        -0.68879005858832    8.21327662192114    5.44769158954292
H        -1.51994827912174    8.63541829266204    4.88799557098885
H         0.05194175826170    8.99876860704338    5.59368018748490
H        -1.05058340628165    7.90984321326561    6.42819157260935
C         1.13686760024682    6.46837214535042    5.47156789974264
H         1.53854379992945    5.62016579085662    4.91820282301044
H         0.85145967252148    6.13768438908241    6.46900050733813
H         1.92163996947860    7.21598440076558    5.57537568929726
C        -2.84461306006455    1.33062262947734    4.64540917620726
H        -2.21692738162425    0.48308079824161    4.34538629392162
C        -3.68239915760348    1.72845023548673    3.43288158360676
H        -3.03084954604899    2.10593845113979    2.64412352705515
H        -4.40273330832412    2.50340719035879    3.68747063772495
H        -4.23272155014944    0.87141040433441    3.04850531473406
C        -3.72173383911394    0.89918358180379    5.81537046793979
H        -3.12421481536876    0.58182718755534    6.66653958036421
H        -4.34516507371080    0.05907888178234    5.51138710375676
H        -4.38041182154247    1.70403890126979    6.13325792379691
C        -0.61434718803906    1.99020966016305    6.40456718669568
H        -1.27102513095883    1.77941115856834    7.25793048264347
C         0.09141926393516    0.71120377840542    5.96686212050339
H        -0.61479445377924   -0.09062670403147    5.76386013179297
H         0.76774800762734    0.37189046897282    6.75062625251238
H         0.67566136753030    0.90285619809204    5.06906496507818
C         0.42111711349090    3.03814431882854    6.80060079936844
H        -0.04971168512979    3.89996540701150    7.26748303215610
H         0.95715388178298    3.37110631280521    5.90937784303623
H         1.14286403263420    2.62401746454792    7.50337988955546
H         0.90339419993659    4.32639286650633    1.55778039736929

