67
CSD_code = CAQWUN | q = 0 | S = 0 | Stoichiometry = C24H36Br2N4Pt | MND = 4
Pt        1.01283565258817    7.09586616296022   10.07338369514868
Br       -2.10067544107051    1.88758632684501    7.31292570061700
Br        4.18288917268960    5.30738622359900   15.66604161047109
N        -0.32738999589540    7.98922118566976    8.46948098950873
N        -0.43169580510951    0.85794057935332    9.84800745725306
N         2.26927900939551    8.89873063449618   10.66107706523359
N         0.20553796827908    3.55190383059181   14.28739941907275
C         0.15118682318291    5.42424808626227    9.42693708423289
C        -0.99151268622953    5.64182222598652    8.64377285447781
C        -1.64878836414507    4.59374290947307    8.02338076233558
H        -2.53309280805022    4.77172295454786    7.42809757935291
C        -1.16274046576702    3.30732284437405    8.17130361405188
C        -0.01220910441780    3.04742008305116    8.90141741598796
C         0.62699113065714    4.11887902932580    9.51639541726928
H         1.52156104538272    3.91097471663388   10.08648430731419
C        -1.47220540211162    7.06110568278637    8.49768589919758
H        -2.08538551571677    7.18143440379205    7.59090265813345
H        -2.09289917144387    7.31687718411385    9.36423093112045
C         0.38926967552952    7.84156799510082    7.20420939954133
H        -0.25979147170810    8.07812883852756    6.34919485250861
H         0.74232627401801    6.81493408346906    7.10073287533289
H         1.24777096096268    8.51285211781141    7.18228109126369
C        -0.83353546847313    9.35064339063810    8.58588514694058
H        -0.02176933730050   10.06895330308186    8.48129308689472
H        -1.30668902043027    9.48948073932562    9.55838479688338
H        -1.57587440280747    9.56754226601459    7.80467234846796
C         0.50085313275259    1.64363333893502    9.05330986180731
H         0.57579272408248    1.17638534977236    8.06608459245140
H         1.51087498742525    1.66244877672688    9.50077251542672
C        -0.42188469148900    1.27585407566607   11.23304161095404
H         0.55419568607436    1.10437800449140   11.71519109739639
H        -1.18313337625587    0.71940019328625   11.77749946950288
H        -0.65337932948448    2.33751821873919   11.29690402917349
C        -0.18836279135224   -0.56112211985185    9.71885842964555
H         0.81193304734753   -0.85794154377143   10.07476345104172
H        -0.28934118100321   -0.84926713178048    8.67327865824621
H        -0.93650253851676   -1.10077855039213   10.29778135346407
C         1.92633368940979    6.32198172642486   11.66203859117096
C         3.01697035316077    7.08174658507405   12.11378133758658
C         3.66895187077939    6.76878065588914   13.29215037550543
H         4.51510150148834    7.35229162254981   13.62632000005602
C         3.22497032731789    5.69975865901776   14.05148102082214
C         2.12991248008780    4.94135430411972   13.66733108181425
C         1.50351084705488    5.26913278417533   12.46672274657770
H         0.65566331385075    4.66232476381912   12.18571031431192
C         3.44541168966745    8.25174683384247   11.26909211288031
H         4.02174760379934    8.98055084257716   11.86031675005592
H         4.08729295125572    7.88763381736442   10.45859431569964
C         2.73001648178369    9.84583576600733    9.65417193145780
H         3.43939154204524   10.56853998439200   10.08184206208058
H         1.89009324423675   10.40595474853480    9.24613349205556
H         3.22733036758732    9.31277544604511    8.84336988293280
C         1.51668220664070    9.60829094885133   11.69333739260374
H         1.19217158060689    8.90314829177610   12.45948388234568
H         0.63767778355610   10.08080209272379   11.25534594992067
H         2.12970950847040   10.38697616864867   12.16911565385121
C         1.62471104887123    3.78434431871856   14.48613382974502
H         2.16183025518675    2.88202592421785   14.17168492028518
H         1.85826326304220    3.94954619871998   15.55345991199273
C        -0.58673643700600    4.61657559213767   14.86705838623509
H        -1.63534345704911    4.45013215333116   14.62565990325302
H        -0.27831824615661    5.56873204671261   14.43947858985602
H        -0.48166358988111    4.67043115737735   15.96290181161499
C        -0.19971224164259    2.26469417196084   14.80808744107386
H        -0.05358337969655    2.17874198165772   15.89691755460258
H         0.37203845524395    1.47882634991841   14.31763467688881
H        -1.25506393528458    2.11222765372981   14.58738095303970

