66
CSD_code = CAQXUO | q = 0 | S = 0 | Stoichiometry = C24H32B9Rh | MND = 10
Rh        8.62537167999794    2.18272871912005    8.45714309418025
C         6.53537764998119    1.24058651229449    8.15476973040818
B         6.99042019994234    1.74569272655085    9.71497670929481
H         6.60530852147389    2.75854445474507   10.18029572345823
B         5.74182925652138    0.49585939221775    9.44167668085252
H         4.62864010579642    0.75702108409593    9.70284869589008
B         6.28344287297871   -0.46602882950101    8.10254375566038
H         5.53746036151226   -0.89779624181922    7.30560756194553
B         7.79630816601910    0.33194452171132    7.58418090709994
H         8.07248941561001    0.35432800617912    6.43734068375189
B         8.47754944583305    0.98689357663441   10.34059424642607
H         9.02337029375119    1.42862439100454   11.28901702796995
C         6.92166636709709    0.33561512464237   10.68489387555980
B         6.53977913639914   -1.05569751850991    9.73014433830023
H         5.94419873812467   -1.93531594749470   10.23248102232377
B         7.87660200099743   -1.14327511473494    8.52907794110636
H         8.23714325606333   -2.16434547460194    8.06887683366556
B         9.07791221311296    0.10172570607776    8.96472812503868
H        10.21005057811170   -0.11960904738316    8.72054983976460
B         8.18512497350606   -0.74040836703419   10.23668564661789
H         8.69731033425534   -1.45759270642946   11.01233676587512
C         5.76558271529360    2.12689571400745    7.24221865536896
C         5.22812267520896    3.34532914754174    7.65926261458220
H         5.35142429496189    3.67000307020492    8.68030041806003
C         4.53603975324154    4.16488180130863    6.78720700322153
H         4.13690979470507    5.10302316695990    7.14765056943796
C         4.34437322478666    3.80479105131439    5.46149234005677
C         4.86762174678596    2.58828183362102    5.03905750616786
H         4.72809074138511    2.27925106156153    4.01227891923499
C         5.55854420353045    1.76764974844140    5.90721985577844
H         5.94715914864062    0.82922056841297    5.54354251571716
C         3.58289591175672    4.68058209546286    4.51327025944537
H         4.12092707853071    4.78968766225775    3.57289058359816
H         3.41904550882073    5.66706589747426    4.94038446908330
H         2.61154296208883    4.23788795149632    4.29086115279311
C         6.42439029253679    0.41964716005915   12.08437037846914
C         6.84294146597057   -0.48190463914707   13.06235488468415
H         7.53932858424837   -1.26313765914586   12.80577712962390
C         6.38053772938441   -0.40192682481264   14.36111661050330
H         6.72699758565810   -1.11776848885663   15.09333872163067
C         5.47699857608938    0.58136115437885   14.74401294026385
C         5.04867160536770    1.47693068175180   13.77536326515043
H         4.34011050424626    2.25001945049345   14.03910922797161
C         5.50946470949561    1.39670351826545   12.47456150477126
H         5.14019549462329    2.10971421862041   11.75431364396827
C         4.99560989715559    0.67130389935783   16.16014486093265
H         5.78040074102998    1.07891662568881   16.79813793563663
H         4.12469280726846    1.31799335369568   16.23487849418629
H         4.73567751040955   -0.31457723140426   16.54135576630325
C         9.52100309053458    4.72864399891825    7.31536176926503
H         9.02875338766624    5.64968763118150    7.01251422804546
C         9.44384132451805    4.38864845216799    8.79693366695061
C        10.32400505113917    3.22585215987916    8.93983419781644
H        10.84796038048505    3.04875874231527    9.87256001567637
C        11.11037275055686    3.18231398879621    7.62418151155802
H        12.08442780766787    2.70269518014046    7.65251233427865
C        10.04663675341608    2.52568835062325    6.76288649980528
H        10.19093997759016    1.61106908762658    6.21033106387853
C         9.04667140741173    3.45361776795394    6.62519211238985
H         8.22007699838854    3.43601922551843    5.92909794255524
C        11.04112108165197    4.62929643825764    7.12146856610876
H        11.34891927046029    4.73255292794306    6.08037205043839
H        11.59442847806101    5.33237332728563    7.74391436917216
C         8.69296327349580    5.00718210318431    9.71699910273201
H         8.73761385989435    4.72776592976091   10.75677500557267
H         8.05391227675908    5.83561373167536    9.46002413192560

