100
CSD_code = CAQXEY | q = 0 | S = 0 | Stoichiometry = C45H48Br2N2P2Pt | MND = 4
Pt        2.92188566385139    7.70237165350855    5.47146787059273
Br        2.32324139016641   11.27377279908508   11.13154767702272
P         2.70404300810678    6.02026693789071    7.06479387535170
N         5.96476323941783   10.57013406102791    7.00009443153343
C         2.72471429278533    9.05448409160520    6.99409775020783
C         3.84718392788273    9.53930014348429    7.67615440410586
C         3.72965686536884   10.21495373628398    8.88349694167829
H         4.61895302751172   10.57251401626437    9.37942522780773
C         2.48063426999963   10.41150329327684    9.43137779402285
C         1.34416158308786    9.95730281350329    8.79218208230674
H         0.36857818808501   10.11297335893260    9.22971303412609
C         1.48115983201852    9.27981236973279    7.59255447463743
H         0.57268697630358    8.91217322131617    7.12869748864932
C         5.23290909770390    9.32367347466619    7.12834690788167
H         5.79447394342420    8.68334662589802    7.81889024719530
H         5.14184540544216    8.79086459661580    6.15467002092154
C         5.29394887730217   11.50639007964350    6.12074165650552
H         5.22434248284664   11.14099870118086    5.08521677021844
H         5.83969703167685   12.44899445333613    6.12630853589168
H         4.28496209788317   11.68281014703879    6.48780761658964
C         7.32670907560554   10.33696948608443    6.57624431342915
H         7.82159716159002    9.68263227485429    7.29409506960043
H         7.85890799942854   11.28672683183734    6.54910295436267
H         7.39005677131246    9.87436983211187    5.57678959255143
C         1.00090659660109    5.46188408382978    7.35752737833712
C         0.67416153202401    4.51399174707457    8.32082132766089
H         1.44805944954602    4.09959201433857    8.95258408843993
C        -0.64196914051445    4.11883339089908    8.47459871378679
H        -0.89888983428048    3.38470470796425    9.22414814528476
C        -1.63342688485398    4.66456344929068    7.67308839648974
H        -2.65961008864728    4.35388699600137    7.80144832354789
C        -1.31190092102671    5.60895069663586    6.71179537695598
H        -2.08561573147232    6.03560309576158    6.09012518042495
C         0.00391563586561    6.00448372776408    6.55507598534494
H         0.28101855365832    6.74276614416386    5.80741851819747
C         3.33437557557955    6.35717518599108    8.73206442005196
C         4.70034863114097    6.27734241383421    8.98816499050903
H         5.36890194898837    5.88868672562152    8.23175995977425
C         5.20604165548800    6.70185566603143   10.20272044137587
H         6.26704802420114    6.63541671329193   10.39608180317162
C         4.35791339894430    7.22554310181653   11.16457757911626
H         4.75605970814537    7.57199332192322   12.10617636175116
C         2.99897988427545    7.31514601649523   10.91267937273367
H         2.33799198053486    7.73158434949024   11.65812241522324
C         2.48810337952989    6.88802693676215    9.70158249797999
H         1.42932420861031    6.97184971759151    9.49973736703193
C         3.55604003055922    4.43667215454701    6.61519153437701
H         4.57509644076058    4.71945297493700    6.33130023211811
H         3.62250960746021    3.80248187155294    7.50508990251210
C         2.92050944103328    3.63521295716564    5.47067816678433
H         3.69798422231534    2.98596840706566    5.05714117112583
H         2.14285864431032    2.98631156158378    5.88442939627715
Br        3.51737814236899   11.27140412069312   -0.19109268476791
P         3.13710077035632    6.02058101684788    3.87680923420205
N        -0.12467598750018   10.56854736716419    3.93944205831596
C         3.11666924356953    9.05285511721922    3.94680122383324
C         1.99415516000904    9.53832416590203    3.26529214115347
C         2.11156215549484   10.21434094639328    2.05809670186039
H         1.22211188319977   10.57175896243838    1.56220132117517
C         3.36050532551360   10.41086149293323    1.50997994519897
C         4.49692228547981    9.95589075878016    2.14851720386106
H         5.47247586849139   10.11153041156441    1.71077100702776
C         4.36003472595985    9.27802363355923    3.34793252066542
H         5.26881817730447    8.91144401933024    3.81225771927154
C         0.60840969804319    9.32265146001854    3.81309280149167
H         0.04761285990614    8.68105331219018    3.12315178014385
H         0.69961558743659    8.79116546733575    4.78745127714505
C         0.54406060444367   11.50618971672796    4.81886348808603
H         0.61124222661734   11.14238453040072    5.85507164021885
H        -0.00168367055329   12.44878296784971    4.81058583177182
H         1.55389956619329   11.68209556964730    4.45388227741044
C        -1.48698606652955   10.33448793180201    4.36165523400065
H        -1.98032446826334    9.67916014339020    3.64363232118843
H        -2.02008921675829   11.28377371499026    4.38740824419309
H        -1.55123623718854    9.87255694480891    5.36137213489771
C         4.84003862459123    5.46190261209948    3.58343973003619
C         5.16627509169225    4.51278873385681    2.62114868247944
H         4.39204444299885    4.09753588177548    1.99034652743413
C         6.48232134775124    4.11737424168716    2.46718877626991
H         6.73882415055779    3.38219225069321    1.71852853422665
C         7.47422814045719    4.66410427570123    3.26745126576923
H         8.50034398896268    4.35329011564176    3.13888701783010
C         7.15323386089331    5.60973076678957    4.22771056516276
H         7.92730266234618    6.03722553931420    4.84836937234669
C         5.83748144606338    6.00540733548654    4.38472263056033
H         5.56074840130987    6.74434527000061    5.13185557935726
C         2.50566480907771    6.35839652254278    2.21016360298366
C         1.13887768044548    6.28272379500976    1.95697554321650
H         0.47087556172168    5.89571540279349    2.71474391555462
C         0.63172698734581    6.70956739335512    0.74387659328743
H        -0.42993705785923    6.64669717855055    0.55293220866591
C         1.47933733557646    7.23126605039623   -0.21953102922900
H         1.08013598647315    7.57974961224524   -1.15991918906574
C         2.83912813685874    7.31638742168577    0.02933063616791
H         3.49973848046254    7.73116345944288   -0.71738732401056
C         3.35143846108017    6.88709423194578    1.23907556127111
H         4.41090515317153    6.96774003994008    1.43863968184652
C         2.28538406944697    4.43666695015173    4.32591109882563
H         1.26608899777486    4.71903497003726    4.60928562514405
H         2.21946644965860    3.80251704823342    3.43593318797222

