46
CSD_code = CAQZEB | q = 0 | S = 0 | Stoichiometry = C14H27NO2PRe | MND = 8
C         3.44563884011324   -0.84659415601200    7.29938971601713
C         3.99517596230669   -1.42618448411749    6.13883259609026
H         4.99639575324676   -1.24382757907151    5.77599163500319
C         3.13054014596838   -2.49266491928062    5.73244365044757
H         3.37403665729077   -3.25029481493101    5.00309368097684
C         2.04595912996182   -2.53972629400036    6.62024797365799
H         1.27598098474767   -3.29726073967509    6.65305779531784
C         2.19838077693554   -1.47733779226971    7.56361789092359
H         1.60225283638143   -1.32982322676294    8.45266366075978
C         2.98210928072920   -1.18061699642743    1.98958811779328
H         3.05714378175393   -0.70097317904049    1.00919869183477
C         4.27543381440117   -1.94606707935110    2.25140676564986
H         4.34285244309756   -2.25591315583525    3.29017672180339
H         5.15228846750685   -1.34907789714366    2.01134641429124
H         4.30253373111494   -2.84155698021706    1.63178346370226
C         1.78117014477270   -2.12243846038425    1.99614802372716
H         1.88880180996171   -2.88757562423779    1.22916768968612
H         0.85505184947835   -1.58022721699590    1.81841802487763
H         1.69489494826998   -2.61514279577327    2.96261857284443
C         1.35519997864463    1.20941400297962    2.37428557217862
H         0.43272364977916    0.66027156569194    2.60742639182352
C         1.23822990738632    2.57477174487403    3.04634856069691
H         2.05441660426137    3.22932185635859    2.75397707890333
H         1.23493010413814    2.44626124119943    4.12666750281281
H         0.30429642262276    3.04870495224219    2.75349069487598
C         1.46272044338562    1.35538442763708    0.85825571509699
H         0.66717528677218    2.01797779172439    0.52144128135117
H         1.33080229186869    0.40508018009877    0.34909778340555
H         2.40893333972398    1.79199823053517    0.55433463560209
C         4.28740115268106    1.06228580573656    3.34426050589237
H         4.98863922716455    0.25316704009147    3.58530605530715
C         4.73439206265770    1.71576489872192    2.04060101634611
H         4.12699350457128    2.58873500018670    1.81914044159526
H         4.68027317984332    1.02435276497528    1.20289150801456
H         5.76798232695307    2.04634573875979    2.13840866423998
C         4.32830278861652    2.05535996522961    4.50142272847669
H         5.35330904692253    2.38204629105572    4.67015476191599
H         3.95940533141942    1.59178254070730    5.41502818642470
H         3.71823308757338    2.92902825923580    4.29753536797816
N         0.22424512787779   -0.82812058455193    4.73549545976143
O        -0.84927338560584   -1.05611257507563    4.28828709557918
H         3.46444979660908    0.45392277494749    8.70943174894428
O         4.08338882321227    0.09161433907189    8.06602117352431
P         2.65063378714704    0.16620730594312    3.24597064812236
Re        1.82846856160142   -0.60603979270912    5.39180048626314
H         1.48858619412601    0.88777762586146    5.83562784947650

