47
CSD_code = CAQZEA | q = 0 | S = 0 | Stoichiometry = C16H24Cl2PdS4 | MND = 4
Pd        1.94097819436960   14.12909963479279    3.49385191757568
Cl        3.94481577910587   13.89160564577513    4.60515162701657
Cl       -0.06440020371599   14.35618943344526    2.38327505922429
S         5.93156719015181   17.05746302484696    2.44266753830766
C         5.36991137336379   15.53812312545403    1.86743393316743
H         6.07576628438793   14.77693012263295    1.60539132291637
C         4.01289703222511   15.48393847339896    1.86177503563330
S         2.97229896066863   14.13022513124886    1.40797102029250
C         3.40269728009996   16.69483976385843    2.29480189034018
H         2.32886770163290   16.83611990811451    2.29440913590132
C         4.32124285339928   17.62803016662984    2.64228938053370
H         4.15634220787976   18.62087498589906    3.01072898744413
C         4.05087201590048   12.66834986425693    1.57352249071750
H         4.60994879619047   12.55297241024277    0.64426532667942
H         4.72065091614632   12.85721731928462    2.41421945754506
C         3.15857417997403   11.46775360551919    1.85845543459037
H         2.48776833701346   11.73186201624888    2.69957311471108
H         2.53409762501457   11.25207933891603    0.98720172365323
C         3.97634777823533   10.23449427596912    2.23416059177883
H         4.58870801094837   10.46684479462761    3.10770376361718
H         4.64832352141018    9.98138217954379    1.41064202991547
C         3.07790896447489    9.04347107037571    2.54315516811246
H         3.67638000390889    8.17070139146237    2.79176683516556
H         2.45560588185413    8.80048378162624    1.68451508888947
H         2.42802827490484    9.26519101943366    3.38654991550087
S        -1.99685849448488   11.14972536204898    4.55937081326335
C        -1.46314343671245   12.68518204538439    5.11828710795930
H        -2.18296875222573   13.43871517327406    5.36374449651678
C        -0.10719609895872   12.75998463968954    5.13468604645878
C         0.52522009491600   11.55278217564851    4.72305205380507
H         1.60101182727413   11.42778788790827    4.73470906792521
C        -0.37652785381914   10.60107235193639    4.38126911570671
H        -0.19440162775268    9.60541286780825    4.02884414464766
S         0.91029987904269   14.13356457715489    5.58105461328271
C        -0.18893303403631   15.57944286612143    5.40780954671702
H        -0.85959808472201   15.37532905974373    4.57155942969275
H        -0.74531565670283   15.69531948683544    6.33856997226424
C         0.68782433016854   16.78791244720362    5.10842732421394
H         1.31356879194902   17.01868220923686    5.97489645657016
H         1.35743791189365   16.52240105037406    4.26698292164176
C        -0.14312698435238   18.00915553690071    4.72279220995016
H        -0.75719151349365   17.76130690880381    3.85476138667773
H        -0.81346947974039   18.26610926641308    5.54641747063972
C         0.74386935638706   19.20406382416295    4.39572820860244
H         0.13701252744026   20.06879659344475    4.13960778651979
H         1.39212015888481   18.97855162270297    3.55196382428075
H         1.36796717976085   19.46235956394488    5.24858821355842

