70
CSD_code = CARDIJ | q = 0 | S = 0 | Stoichiometry = C35H29BrCuNP2S | MND = 4
Br        6.23961173653494    9.60354476109955   11.01796576456804
Cu        7.52842961155132    9.71321862725264    9.09129398122607
S         6.94362499330351   11.50075411302516    7.47546923197877
P         9.04427249736876    8.48148312440501    7.98464346267286
P         9.56890345346818   10.98297713531019    9.61148089301306
N         6.39453598734195   12.65901217897590    9.79287718874760
H         6.38894026859769   11.69962044593617   10.17600737692685
C         6.58992577249897   12.81390148162995    8.45670316193052
C         6.14978720042289   13.68196405244989   10.62744857578354
H         6.01610623957810   13.42037983876675   11.66580850037408
C         6.07487969712810   14.96066374161635   10.16124293365320
H         5.88588565327791   15.78110413334711   10.83157691649898
C         6.23682100341185   15.17975911196606    8.77762506183321
H         6.16171751154570   16.18217545765925    8.38434680557912
C         6.48521042755084   14.13001094341781    7.94411548421554
H         6.61524300106963   14.26090629396845    6.88195366914689
C        10.32008477936521    9.61422948209631    7.35195458360825
C        11.03237613236504    9.39091476506825    6.17892085073049
H        10.80698395436647    8.52734978078199    5.56786081699745
C        12.02150426829442   10.27566720903511    5.79037034651677
H        12.57074100862520   10.09912339985064    4.87708329819255
C        12.31435524982189   11.38224880468830    6.57332039047181
H        13.09803726665600   12.06340470295115    6.27511193811030
C        11.60481634568457   11.62021099826567    7.73600067381792
H        11.83473343430103   12.48503869843767    8.34328893115483
C        10.59672982689731   10.74664477728553    8.13025245912854
C         8.73742304406533    7.39532807048303    6.56095762485127
C         8.99485736171862    6.02959397558157    6.54833109388359
H         9.46981285768861    5.55988220405799    7.39870353492843
C         8.64539968867833    5.27841717288709    5.43967862176979
H         8.85186773866235    4.21799902697001    5.42594504651557
C         8.03060662103947    5.87823673769996    4.35311740775219
H         7.76034786703588    5.28512958718670    3.49196295519978
C         7.74977455729814    7.23640530574294    4.37359169865287
H         7.25742007927873    7.70125468797280    3.53207022201024
C         8.09082488768422    7.99167723672139    5.47765564820848
H         7.86397127199906    9.05077301246882    5.51722948105253
C        10.04756410821000    7.46098917477374    9.11181007205788
C         9.48245666904094    7.08706557255123   10.32593254416578
H         8.47222933267881    7.39496917660160   10.56257848502725
C        10.21048302892448    6.33209484727309   11.22705598381040
H         9.76858554162585    6.04818900482047   12.17015060450314
C        11.50466981029409    5.94998231372639   10.91847107353803
H        12.07702481376134    5.36441731902390   11.62267261173892
C        12.07049672433465    6.31891984501248    9.70784164825337
H        13.08062108843422    6.01832286733080    9.46926090429045
C        11.34838971058577    7.07444303726925    8.80411942953574
H        11.78994425518686    7.36755880692968    7.86089448839700
C         9.77939534117998   12.74975054234751    9.99350687617942
C         9.58085063448983   13.67889283632182    8.97148447577859
H         9.44408634502758   13.33376492184357    7.95488541502634
C         9.56751998464953   15.03083599769707    9.25224072774155
H         9.42973083245948   15.74315797324716    8.45158760305260
C         9.72257792212050   15.47192043555395   10.55668392016811
H         9.70834966696132   16.52933420762692   10.77509306011629
C         9.89100979786050   14.55310963996812   11.57960790267538
H        10.00641329334322   14.89361379438760   12.59828144527362
C         9.91211923909183   13.19841592027175   11.30501619660648
H        10.04467840229714   12.48436221834357   12.10578311133907
C        10.57502106186410   10.17671044445160   10.90141829900829
C         9.92633069851943    9.87102495067456   12.09589122945468
H         8.87988652945645   10.11854136631489   12.21900883434231
C        10.61098184607276    9.23394696968906   13.11349411555813
H        10.10278848571290    9.00111993720997   14.03732271734448
C        11.93951839409777    8.88399120655034   12.93891104579745
H        12.47433374998184    8.37831017741605   13.72938885451369
C        12.58223634265257    9.17367184089368   11.74657801372916
H        13.61677349376999    8.89423792001800   11.60773994380437
C        11.90660920963862    9.81873743124632   10.72743495427878
H        12.41306034954142   10.03859222569448    9.79748678139246

