66
CSD_code = CARQES | q = 0 | S = 0 | Stoichiometry = C25H27BBr3ClN8Ni | MND = 6
Br        3.35055481532692    5.01367003249067   13.78181406407893
Br        9.79709885344924    4.91028366680515    7.33646428411374
Br        3.91194083838851   12.28200495957907    7.30960440414238
Ni        6.91463011292156    8.93104800266135   11.23291480843757
Cl        8.42282442018451    8.14488093121566   12.55174571355689
N         5.68907304723255    7.54282902070251   11.68104607122832
N         4.97107747313755    6.99790919092208   10.67881740736969
N         7.67862224239736    7.57462905485743    9.52750619653299
N         6.68062102918522    6.93345741684712    8.88927028425925
N         5.60062068923916    9.69943804624634    9.92236203422217
N         5.09509297649518    8.83774191324942    9.02510385962600
N         8.10420809461932   10.32253327090788   10.91989098115972
N         6.29660803216268   10.43458747388109   12.87431856819885
C         5.29706933120399    6.98777612808803   12.82649630458872
C         4.28400649815864    6.06764307153724   12.53023224970627
C         4.10176641597578    6.09303743533409   11.15995461720631
C         5.82012674473168    7.22765095887601   14.19547787443465
C         3.14885608111572    5.29726544228630   10.34757443716302
C         8.82604760316717    7.03035664205584    9.14215224459260
C         8.54317490965000    6.00834728179817    8.22396397216261
C         7.16666770049165    5.96807640392569    8.08624116230045
C        10.16699391591957    7.45416284183807    9.61935484650826
C         6.33952358667988    5.06356760429353    7.24958514326253
C         5.29932850397129   10.93417339071005    9.52688070388715
C         4.58776101741116   10.84260608161948    8.32551570961583
C         4.47529346064257    9.49330550637489    8.03106992638874
C         5.62651767476169   12.19228741524375   10.24662612075238
C         3.82217933854751    8.85195934161967    6.86425351532206
C         8.33203403218984   11.17429977519722   11.92960111773222
C         9.27778283859056   12.18965826713541   11.82018001223297
C        10.00234261806123   12.32088116653144   10.64951323015979
C         9.73894895197675   11.44654018692623    9.60758427717066
C         8.77769182278127   10.46598861620520    9.78797151983299
C         7.47864174303137   11.02243555776685   13.11792894817292
C         7.83900769702653   11.46832319651043   14.38485792185407
C         6.93234377293576   11.32743625477685   15.42286694094952
C         5.69282053801457   10.76886750797555   15.15775083972170
C         5.42686712621093   10.33503670242920   13.86667010204171
B         5.23267226826590    7.31649534924166    9.19553284283408
H         4.47367176811119    6.74516549666472    8.50197145774484
H         5.00819042238437    7.52355769337685   14.85981621876475
H         6.59841281372980    7.98152974297150   14.20003853574149
H         6.24450575004115    6.29951072120625   14.57927797037095
H         2.49562851217648    5.94889691409776    9.77059093655025
H         2.54091179896267    4.68157390918117   11.00648866679862
H         3.68148535011051    4.64850493342979    9.65475111443106
H        10.82226715853921    6.58781429656448    9.68341011803824
H        10.08518174336521    7.91129112171532   10.60155345149188
H        10.61749328673990    8.16779150826840    8.92811536714945
H         5.67860937590133    5.63304039625330    6.59875120648242
H         5.72577001767123    4.41789318751918    7.87634710664626
H         6.98783647805192    4.44058610525191    6.63793056713249
H         5.64998815543625   12.01743958768400   11.31784749123655
H         4.87194405335370   12.94364941674348   10.02024493587423
H         6.59455144515168   12.58253514373664    9.92895121023008
H         3.42465495563866    9.61812411878967    6.20279219215131
H         3.00637007844320    8.20706162285867    7.18598714917452
H         4.53762549536818    8.24490509330286    6.31260804734781
H         9.42986836766989   12.87413001952105   12.63891174901490
H        10.74757176642395   13.09491018245522   10.54859411001776
H        10.26750615969454   11.51799063890243    8.67063219742328
H         8.54749445159459    9.76661444424682    8.99647932420311
H         8.81546622852787   11.88841481774094   14.56313194586271
H         7.18892126087344   11.65442472322722   16.41916319233225
H         4.95113127434420   10.66360097079838   15.93334567765240
H         4.47300301544412    9.89125208683184   13.61327280261711

