42
CSD_code = CARROF | q = 1 | S = 0 | Stoichiometry = C20H18N3Ni(1+) | MND = 7
Ni       12.39338394244087    3.39598071939505    0.92302773092324
N        14.82264050950461    3.26745428744694   -0.42567602508047
N        14.34927636299816    5.36274118449896   -0.29158986139598
N        12.24500266985692    2.05449008496418   -0.47355705093790
C        10.98453750653433    4.35626168095637    2.19673088539691
H        10.27681385085593    5.14037710273101    1.98730064695514
C        12.34692140851604    4.52895682926463    2.57404859817275
H        12.81704277624247    5.47956561513110    2.78453800169225
C        12.86090179477138    3.24653954847433    3.03069041687776
H        13.79324259159582    3.10437861233564    3.55094126843305
C        11.89589746050736    2.30053988635716    2.76461749958325
H        11.91735706909470    1.25572044160654    3.02882739585116
C        10.74897312332448    2.98121239675759    2.18657612887211
H         9.79893156869142    2.50181351555968    2.00117558931867
C        13.90581631566024    4.13666967328289    0.05173065490866
C        15.83092655763214    3.93894653809712   -1.05643919147087
H        16.66659710837086    3.44427426023115   -1.50645781753560
C        15.53736721129578    5.25925852380057   -0.96467391425185
H        16.06132922468480    6.11200278349014   -1.34331144714507
C        13.64666727422685    6.56294369722335   -0.03829830283375
C        12.25894155631436    6.55779839024222   -0.13244196439015
H        11.74737328411776    5.64025711512853   -0.41935643841447
C        11.55383124168305    7.71947828438424    0.12205293104556
H        10.47755782533703    7.72198990816305    0.04732404315962
C        12.22882965984130    8.88217786481635    0.45959026998817
H        11.67683899804192    9.78817784327309    0.65369303022472
C        13.61121473644022    8.88320903724182    0.54634188390265
H        14.13620602096340    9.78731363354514    0.81158368714722
C        14.32755404682517    7.72472738482746    0.29950735221631
H        15.40309854629045    7.71972648137162    0.38776828828215
C        14.66887728796998    1.83555784175825   -0.30802395030141
H        14.69145153809380    1.55972533681950    0.75770059951763
H        15.49441500918944    1.33988177862644   -0.81952188903298
C        13.33928684711633    1.39855981691725   -0.88972703353296
C        13.26608840007956    0.36375030099980   -1.80850856155907
H        14.16424208141674   -0.14627561798893   -2.11848757222798
C        12.03148016769695   -0.00879155372691   -2.31707309337644
H        11.95257901582989   -0.81561936502908   -3.02831870983577
C        10.90801084579871    0.68564096884816   -1.89932607023995
H         9.92792453122975    0.44084983754182   -2.27453039296216
C        11.05877841510083    1.71023604735930   -0.98182385283850
H        10.19919361781761    2.27730128327521   -0.64732376310553

