31
CSD_code = CARRES | q = 1 | S = 0 | Stoichiometry = C8H12CoN6O4(1+) | MND = 6
Co        4.29630904012565    1.65719016696571    5.01533273467521
O         4.55302778671141    4.33716331749865    4.94871187792986
N         5.12434000389840    3.32501921246683    5.27186375653605
C         6.60350728414867    3.19699415948443    5.31393176592938
C         6.93537519301364    1.83234142810352    5.68816523131312
N         5.94925368857139    0.99627471021256    5.70050170345058
O         5.93694081719402   -0.18172793743108    6.07424558759374
C         7.38014754299509    4.15901090464348    4.93275918130259
C         8.32927477012470    1.43092595087383    6.02898732429109
O         2.24202864179353    3.20346795376571    5.62570013116141
N         2.57735044137020    2.20974750142827    4.99895077420901
C         1.66166378562912    1.41555675616519    4.31177265341513
C         2.24933760812113    0.13822837696480    3.89196247628351
N         3.54974650195326   -0.00967178273438    4.41788506103783
O         4.23381125813731   -0.96095880227242    4.13101824484381
C         0.41456957831434    1.86345583464547    4.06396661259824
C         1.65433226393370   -0.85446167637242    3.21154118308618
N         4.53567943494861    1.76558196489745    3.34898470760939
N         3.79029975867874    1.24718152989848    7.19073217488006
H         7.40237140881787    5.20510799204036    4.73970853908143
H         8.72779816097957    2.07936101720896    6.80777737492353
H         8.34263075634347    0.39644649286833    6.36441753950869
H         8.96956117635163    1.52997819469593    5.15311600171729
H         0.11433022092238    2.84064426914549    4.40745177177439
H        -0.29740571836528    1.28769291536074    3.50233911422880
H         2.20460473384090   -1.75798091848028    2.99920073270710
H         0.63668587922216   -0.79698503902852    2.87121305932082
H         4.77787518257435    2.63815995519778    2.86879634929793
H         4.20047757547642    0.34758850611251    7.45101068699268
H         2.80289315289029    1.19773137749908    7.43539127537733
H         4.19038207128346    1.94193566817521    7.81956437293246

