35
CSD_code = CARSOD | q = 0 | S = 0 | Stoichiometry = C14H14Cl2N4Ru | MND = 6
Ru       -6.33439841139415    4.61792984370586   10.34884475732099
Cl       -7.77465155911807    5.46557329513083    8.63835386516805
Cl       -4.84691537409688    3.80201176928072   12.02803302111992
N        -5.34647371579828    6.31113851483718   10.32151321939205
N        -5.02867674301007    4.17865269226492    8.95338561201558
N        -7.60664648228307    5.16477419623574   11.66621942598093
N        -7.22789425163752    2.92943014059196   10.30997288610837
C        -5.54758831666005    7.35697370621935   11.12164259983781
H        -6.32523867599007    7.24915239614059   11.86675503124236
C        -4.82023816752654    8.52698541717449   11.03561037870013
H        -5.02842896700917    9.34101665471650   11.71132484727461
C        -3.82580716217147    8.63238901390582   10.07102989675001
H        -3.23980320096575    9.53282068869276    9.97338865242195
C        -3.60176160738134    7.55102573342949    9.24232505598379
H        -2.83288029481239    7.59566118117706    8.48852028686037
C        -4.37288582004118    6.39874392359800    9.38754532226588
C        -4.20631351275703    5.18947084712243    8.59263874326464
C        -3.28470181230760    5.04690089235172    7.55645689030423
H        -2.64788075251290    5.87184795266781    7.28205146084492
C        -3.19618292656677    3.84622190367023    6.88058283013930
H        -2.49204806126857    3.71810692094313    6.07344556404768
C        -4.03586053787278    2.80961621820282    7.26886865699693
H        -4.00135822600444    1.85129579723354    6.77591541266291
C        -4.92786760922920    3.02183455481059    8.30061444047476
H        -5.59279387639058    2.23018815583491    8.62094471890236
C        -8.44414475647455    5.49065011307045   12.38601834949016
C        -9.48412306888405    5.90382229223779   13.28455032127007
H       -10.34893187383515    6.23540994780032   12.70976229247521
H        -9.77297121956208    5.06859299906257   13.92232373404790
H        -9.13123828628502    6.72444538553722   13.90928487672384
C        -7.76877446946245    1.91350495458491   10.34215780925567
C        -8.43625158695281    0.64357179211575   10.38035074339570
H        -7.99552802490745   -0.03013300749353    9.64537611010874
H        -9.49340292575456    0.77908623654594   10.15234899075823
H        -8.33273772308028    0.20658687659917   11.37354319638671

