59
CSD_code = CASHEK | q = 0 | S = 0 | Stoichiometry = C28H23AgN3O3P | MND = 4
Ag        2.14566782885854    1.85868915910568    6.01582759696455
P         1.23091690159032    2.01370518981389    3.73157460379043
O         4.05610232340027    0.35217198958199    6.40324160062066
O         2.15265789759308   -0.35602950983725    7.04564767427986
O         3.93312868185414   -1.22263237130679    7.83913648615798
N         3.94264154206127    3.49102351732692    6.35299416057036
N         2.18358330054502    2.47439726771355    8.20305710931517
N         3.39243651921542   -0.42725675635478    7.10670784649547
C         4.67222533281566    4.22591154032164    5.53094549110467
H         4.32411664641192    4.27620052661824    4.50723843300768
C         5.82117081842472    4.89288695722445    5.92416485520306
H         6.39132868072718    5.46854938749033    5.21242611897323
C         6.21164104810228    4.79949471225684    7.25113696707950
H         7.09266458772013    5.31452214554470    7.60525858527816
C         5.45144609202412    4.03531139241772    8.11675226070622
H         5.71654256349195    3.95895381603000    9.15949972364202
C         4.32349806111280    3.37691080906072    7.62644927614578
C         3.49242267004138    2.52469511903630    8.49309589528772
C         4.05084464191608    1.78805480000969    9.53348242572815
H         5.11558579123634    1.80589494417344    9.70247587471357
C         3.22989811356700    0.97995623525266   10.30122843418134
H         3.64475773311246    0.36983464000466   11.08853814167655
C         1.87178551488093    0.96251029841835   10.02756856327556
H         1.19429074408819    0.35264082365707   10.60276338685431
C         1.40062695292865    1.72380124106982    8.97090239067232
H         0.34678409264454    1.73950519097394    8.72454472411962
C        -0.02383454528687    3.20708005986781    3.17122326009983
C         0.29105735137864    4.55886220193219    3.30244480508290
H         1.26520473807473    4.83654346910324    3.68588875512322
C        -0.62626768683570    5.52634921240314    2.94375883368201
H        -0.37301299053759    6.57235486888002    3.03627624084776
C        -1.87510408096809    5.15342647749009    2.46932914428117
H        -2.59361149009606    5.90907653981853    2.18849166823606
C        -2.20312810390665    3.81246759397321    2.36520423308739
H        -3.18025446995062    3.52197531750243    2.00775591096216
C        -1.28506812040872    2.83836114570331    2.71895012285053
H        -1.54720193895634    1.79262288807583    2.64277425615377
C         2.62660873902306    2.36818887254470    2.61007744834989
C         2.50953926093451    3.07028270143513    1.41515430146363
H         1.55487774227878    3.48031950911317    1.11532900767056
C         3.62297382591714    3.25834844547397    0.61488786227949
H         3.52917389001545    3.80563349070980   -0.31202065190521
C         4.85248388439283    2.74706457112147    0.99664981865596
H         5.71711994026360    2.89680488487471    0.36694389379315
C         4.97294596690269    2.04784880741768    2.18750329119945
H         5.93072805180017    1.65213205376235    2.49046796295818
C         3.86574523794780    1.86019865770008    2.99392835287984
H         3.95452374058599    1.32458545841215    3.93471783897352
C         0.65658958017656    0.42814397115622    3.04014941887198
C         0.45807942881189    0.25182140392710    1.67297692932434
H         0.63877818648403    1.07170112515240    0.99155389024246
C         0.03336437091334   -0.97243453083527    1.19295657850849
H        -0.12155831229083   -1.10952564456978    0.13255032729648
C        -0.18947452696795   -2.02491836719726    2.06831939652147
H        -0.51867263514217   -2.98029713692272    1.68688878443950
C         0.01643370286443   -1.85468998916935    3.42700423822882
H        -0.14777224099714   -2.67626757019805    4.10790910028016
C         0.44025720823736   -0.63066613797080    3.91532147967864
H         0.61661121484799   -0.49309741587371    4.97657487436015

