79
CSD_code = CASNOC | q = 0 | S = 0 | Stoichiometry = C34H36N4O4Zn | MND = 4
Zn        3.59197921183055    9.33227583886158   17.16817465295444
O         4.47080197980993   12.78118413898225   12.86436199964088
O         3.04489828451064   11.15064179492820   12.30512679352466
O        -0.53202284008793   10.36634000088018   10.05870986222549
O        -0.65169676582105   11.81467340413333   11.76086411400740
N         3.51288896416977   11.20967786339118   16.40777781245338
N         5.22421548933135    9.84687501132595   18.25354182264986
N         3.67109545343236    7.45898673543631   17.93482649804438
N         1.97819013131608    8.81082374067783   16.06885401668165
C         2.59336943559542   11.68532614745324   15.52812538915014
C         2.88174350315049   13.06375782667288   15.20313453041902
C         3.99763078904275   13.40184163553181   15.90942246276948
C         4.37352444849988   12.22886444970792   16.66590834506876
C         5.45667368559389   12.16104663657113   17.52615016636749
H         6.04979593778573   13.05645102993315   17.63694327941920
C         5.84383418525886   11.05635507926972   18.26451264322536
C         6.97175709022029   11.03003196527760   19.16955391911499
C         7.00939619508860    9.77752756988717   19.70272384821525
C         5.90599500122252    9.04902489693004   19.11617985133898
C         5.59934894841968    7.72890550276052   19.39885990426591
H         6.23180224738747    7.22236524670521   20.11255497510709
C         4.56286286740153    6.99492233178801   18.84820468397159
C         4.28409331877836    5.60959039919370   19.15791847035264
C         3.20839355449499    5.25457347638074   18.40220502186333
C         2.83766727426208    6.42710198293304   17.64040615535234
C         1.78971054715773    6.47705217987962   16.73749780448732
H         1.22290298530412    5.56928102327205   16.59387492310890
C         1.40102919264824    7.58288741587449   16.00068000286843
C         0.31322128911524    7.59549471947172   15.04713166890019
C         0.24558727481540    8.86507144231369   14.55939404333848
C         1.29353678210751    9.61448611233582   15.21533530972791
C         1.54910523721934   10.95515865171849   14.98963957825327
H         0.89051570285992   11.47179772662041   14.31019953313129
C         2.10600570389219   13.89063371380639   14.22957512657189
H         2.48336085838672   14.91277186629969   14.26321043522932
H         1.05673590511362   13.91587587387510   14.53114189578532
C         4.74220575082739   14.69043529927835   15.93782993701104
H         4.31265123593347   15.40260430888721   15.23867909114161
H         5.78499736135923   14.53102836342131   15.66576787580513
H         4.71422501230690   15.12584748416983   16.93696067196881
C         7.87122639247666   12.18995052575089   19.42187395282821
H         7.30448079607329   13.03218067923449   19.81860120404477
H         8.35033807078750   12.50989309789413   18.49660782519425
H         8.64680009708782   11.93089464772371   20.13786869301878
C         7.96317692679952    9.20229451739753   20.69131011960857
H         8.70612126567532    9.93838739378490   20.98720470904482
H         8.48102822809254    8.34271760526267   20.26592023031172
H         7.43317735932366    8.87061166990729   21.58403696684744
C         5.06775470141057    4.79231899138977   20.12529457286529
H         5.04074494021430    5.24502420090556   21.11635660717189
H         6.10954144539314    4.72511093724067   19.81187151115218
H         4.66570105402637    3.78508672226668   20.19705112344153
C         2.50085950867704    3.94649948108316   18.32401682325188
H         2.53914862588470    3.55248096445419   17.30851029706455
H         1.45368093965730    4.06268007398161   18.60296273861542
H         2.95518352612540    3.21895262044146   18.99151993111031
C        -0.52412010229015    6.41314072459102   14.70449484719741
H        -1.28159699502054    6.67772919812970   13.97146465126229
H        -1.02240705532449    6.02603660766060   15.59318420941480
H         0.09370625511990    5.61713929418313   14.28928887961455
C        -0.63464065855180    9.43503271797893   13.50059831830460
H        -0.98150171208798   10.42529462735932   13.80521864823614
H        -1.51318893070844    8.80472527664356   13.35336972228188
C         2.18891255984523   13.35772948695229   12.77477632516438
H         1.23679502048464   12.92963885289545   12.46128569431008
H         2.43878323928928   14.17794533888329   12.10052585727903
C         3.25082015862311   12.29513390173035   12.62202367446555
C         5.53713777474330   11.84498203377441   12.86293033665290
H         5.45606401575663   11.18620063679701   13.73110383224983
H         6.45465223174452   12.42579091354361   12.91257597964016
H         5.51142670894234   11.23918949855407   11.95486009794551
C         0.13245911904873    9.57495548799018   12.17286768861301
H         1.17892554080956    9.82146083046255   12.38125881288328
H         0.10501267143776    8.65453682802151   11.59190170657443
C        -0.39592783774195   10.71223496408453   11.34306521573895
C        -0.96178410403480   11.38749791466178    9.16991319765601
H        -1.88266843017363   11.84627096683431    9.53593182622575
H        -1.12752770300350   10.90741664519229    8.20902558349230
H        -0.19422487435238   12.15934223748128    9.08316847369775

