58
CSD_code = CASQES | q = 0 | S = 0 | Stoichiometry = C27H26Br2P2Pd | MND = 4
Pd        6.02222259163068    6.79911656310315    3.77109688084240
Br        7.75678222886264    5.46422536198986    4.75923527801893
Br        7.55067633902622    8.34220278139274    2.71582671389321
P         4.48130370325975    5.21954103166916    4.22470048012080
P         4.44529261950987    8.22676278888335    3.03396438388855
C         2.84711324125559    5.74384221928679    4.93149314815198
H         2.04604797244262    5.20606260270032    4.41769274133297
H         2.84366786889282    5.43171149058866    5.98080716481638
C         2.60385597251023    7.24974969421825    4.84993926878982
H         3.34515968547705    7.76874219029471    5.47328003076461
H         1.61832945761120    7.46696819091118    5.27116609670445
C         2.68670176273824    7.78267625996813    3.41782802485233
H         2.08370874058677    8.68871791354463    3.30232501878536
H         2.31699339302872    7.03431136278551    2.71223111341487
C         4.11204625217478    4.60624589576499    2.54404759239632
C         2.95953253902637    3.89680077180329    2.21726888516626
H         2.23362597077703    3.65296163825311    2.98113080741391
C         2.74246753689941    3.48599335483213    0.91424576298764
H         1.84281811547503    2.94075237994221    0.66847671387259
C         3.67473367568519    3.76803964534158   -0.07172874118383
H         3.49698370393279    3.44928883667774   -1.08781941810448
C         4.83861440895945    4.44737894176168    0.24905668179450
H         5.57436867415420    4.65687255065469   -0.51255636482474
C         5.05833338398538    4.86339510800074    1.55015266776091
H         5.99577434624384    5.38489378472271    1.79395012562925
C         4.82783061227020    3.72488976060098    5.19245738945663
C         4.87353208133297    2.45039198154866    4.64299992489484
H         4.66844912086379    2.30132071503796    3.59219500485697
C         5.19452960821486    1.37133126906401    5.44814769386450
H         5.22917300173367    0.37968844582394    5.02158907289280
C         5.48408032020778    1.56070067670022    6.78842883800901
H         5.74363830803510    0.71542479604283    7.40794419504245
C         5.46157091354478    2.83554793625255    7.33300146434876
H         5.71053325772924    2.98633522903322    8.37255348777781
C         5.13870606721205    3.91577411992012    6.53716482160594
H         5.15237104882873    4.92079884867680    6.94343710214254
C         4.37897818348951    8.75740790886590    1.30394768368071
C         3.74338440166696    7.94564997793119    0.36715963009973
H         3.24605744173138    7.03696175752733    0.68036987967041
C         3.76287062784082    8.28813987204770   -0.97171842004784
H         3.26818628092311    7.65453839172632   -1.69347042768494
C         4.42473948721981    9.43259295765543   -1.38611202977696
H         4.44266906661668    9.69501349714179   -2.43338125208669
C         5.07732720006132   10.22952516150722   -0.45985272449008
H         5.61055881785399   11.11067791010576   -0.78293743781922
C         5.06405230538235    9.89340869881339    0.88117047265713
H         5.60002446091599   10.49765639922368    1.59873243845972
C         4.61423446003709    9.72421550982933    4.04876272052059
C         5.41594000364555    9.65663509140903    5.18650167046982
H         5.97103278701339    8.73538564987106    5.41878480074754
C         5.53655711946448   10.75630438537007    6.01625461524919
H         6.16497278339495   10.70385649584007    6.89248909913320
C         4.85814046779260   11.92563187393837    5.71370756968164
H         4.95943886669075   12.78790411262358    6.35553548010922
C         4.05332071365761   11.99445023104223    4.58721924950571
H         3.52698419435085   12.90830028332899    4.35380020240313
C         3.92411321293756   10.89660558777250    3.75691078277337
H         3.30004859322071   10.94788110858882    2.87439594461486

