65
CSD_code = CASTEX | q = 0 | S = 0 | Stoichiometry = C26H30Br2I2N4Pd | MND = 4
C         4.09280245859798   12.75828845989029    4.23133798259051
C         2.11278435796764   11.96802873415744    4.89910998459597
H         1.27188942158885   11.30685512916503    4.92435582683661
C         2.34718584317957   13.12202446863443    5.56141391493878
H         1.75747106752300   13.63787672813998    6.29021651766674
C         4.19640890853802   14.81275769561739    5.57149749933777
H         5.20120797394570   14.83405645744854    5.11559383174473
H         4.30379839889543   14.80403249089510    6.66145244050474
C         3.40516525547243   16.04024792857424    5.11763887516270
H         3.15143769916007   15.92896034936646    4.06108966211272
H         2.47358188449268   16.11101268440147    5.68368593009467
C         4.21937659837200   17.31777057592763    5.29715397124684
H         5.10781284252621   17.25748338737983    4.66542124328637
H         4.54465582148766   17.40439813899100    6.33674846618928
C         3.41918283124374   18.55355171189415    4.91029773108086
H         4.02221016164143   19.44813533447925    5.04204142248261
H         2.52895307798871   18.64496559561310    5.52891230937360
H         3.11253643918376   18.49363720660313    3.86876230798144
C         3.38521688592983   10.65181449159345    3.22882818826301
C         2.96396770670399    9.38613061263045    3.62408212433275
H         2.50705695538146    9.24600601250187    4.59144286524277
C         3.15701674594837    8.29997667698299    2.79226882016984
H         2.83989396155002    7.31634213228468    3.10061764298350
C         3.77199323451969    8.48402696591878    1.56473875737674
C         4.20019789609727    9.73740894671312    1.15921649342225
H         4.66893462976365    9.86529208646908    0.19560069140395
C         4.01405452936765   10.82451599593832    1.99482299392856
H         4.30696003060601   11.81772865714376    1.65200284387732
C         7.75711670453564   12.90046602284177    2.60270324587200
C         9.46964485045876   12.52674639395892    1.23170149360183
H        10.05069745816675   11.99981293962716    0.50397802816078
C         9.68915357987106   13.71704592679666    1.83191156851585
H        10.50528619021395   14.40375014420997    1.74589170256641
C         7.68560477733440   10.77660031528342    1.35519341788000
H         7.47694731020156   10.76901451041630    0.27914645545241
H         6.73272885908184   10.69818868553992    1.90270186842366
C         8.60079915368492    9.60748015843992    1.72327312928859
H         9.50511726898313    9.66082772949640    1.11284767258155
H         8.89432202172999    9.70192288568341    2.77120826366778
C         7.92117404169250    8.25258798987351    1.51406108411985
H         8.69208434452717    7.48796676976205    1.40398265663832
H         7.34516758511517    8.27117924782969    0.58559174808802
C         7.01863039150353    7.86723776239949    2.67873922722325
H         6.53778281931795    6.91217674633563    2.48313357265781
H         6.24520244489682    8.61179908763773    2.84557992771210
H         7.59699090588645    7.77927372518478    3.59503878525581
C         8.42386953597947   15.07282097934648    3.47635757598149
C         8.74354253966745   16.33430315381553    2.98617624455222
H         9.14913600821446   16.44141840156143    1.99206695285131
C         8.50470317132324   17.45650416388725    3.75600714254671
H         8.73720536182625   18.43779601958798    3.37354960500036
C         7.95005919324223   17.31027823549214    5.01654927042601
C         7.63373041985134   16.05924788788814    5.52087008189817
H         7.21522136677984   15.96329573500012    6.51104556971469
C         7.86329227951860   14.93572963101034    4.74659235079062
H         7.65681420879173   13.94738867041364    5.15743971270320
N         3.56863378558347   13.58583037678452    5.14384332753202
N         3.19363196277153   11.75760825158825    4.07444417528687
N         8.27892997187228   12.04396175750212    1.71370951498707
N         8.63159081635745   13.93134427855507    2.68315201682953
Br        4.03869647554329    6.99223847618085    0.41264965783481
Br        7.61458858428759   18.85429611522756    6.07921607799189
Pd        5.92689684601704   12.83718114687908    3.42722468940779
I         6.64300571126305   11.00580810481405    5.15507853036846
I         5.20574743623139   14.76454591780137    1.79659231735361

