53
CSD_code = CASTIB | q = 0 | S = 0 | Stoichiometry = C20H24Cl2NO4PPd | MND = 4
Pd        5.05496301300481    2.74643162545321    2.37311587481957
C         3.78157375919788    1.28571459393966    0.24902453506777
H         4.83532677676555    1.21098155124276   -0.03710678632644
H         3.39285083611195    2.25193655752450   -0.08518941015243
H         3.22438199401649    0.48102342709077   -0.24573189730092
C         4.21123402748814   -0.12110042501076    2.14725046534375
H         3.60367741909980   -0.94204129425831    1.75684489669038
H         4.21183403488053   -0.16404389549037    3.23868571012263
H         5.23917497733054   -0.22094895833667    1.79359863505154
C        -0.58446828088069    0.50812212020190    0.06417182725383
H        -0.12291208667201   -0.17161435950545   -0.65431338108885
H        -1.19491856638906    1.24898122420186   -0.44485016265663
H        -1.18605329967491   -0.07350701874514    0.76433521578751
C         1.30771055843483    0.50617657810992    1.44075516762203
C         2.31659048202429    1.37793706789777    2.20555836775137
H         2.28849525129470    1.01986916460793    3.24582993677083
C         1.86767949313422    2.84272405790915    2.22648051609523
H         1.73895015476058    3.25115752276309    1.22103064974828
C         0.58505401971896    2.97211821356171    2.99806925759777
C        -1.27760821597025    4.35940423536482    3.36436560950542
H        -2.11364377290536    3.87251740073156    2.85907557638859
H        -1.40729798375859    5.43923986190213    3.34980033612695
H        -1.21313350718543    3.98656343218985    4.38805628586901
C         2.80532108663939    5.57513925706898    2.92980328040036
C         2.03097286724553    6.11517146398429    1.90806243317270
H         1.57270997805753    5.47725158294526    1.16742155071313
C         1.83508305333730    7.48367976173677    1.84625082491178
H         1.22480723737807    7.90054827047397    1.05852238173098
C         2.42592428092437    8.31892712017641    2.77991315849561
H         2.27265144593194    9.38615858849391    2.72137009284671
C         3.22615581818552    7.78656143716688    3.77899297535531
H         3.70419763394278    8.43749445152398    4.49526694427683
C         3.42098666544571    6.42126413280928    3.85361928587634
H         4.06285222389756    5.99590325061420    4.61353877166225
C         2.99501398162802    3.44173793389813    4.82459630726913
C         1.98277334299707    4.00760705846132    5.59385855358236
H         1.32190078883304    4.74354962975677    5.15679480373186
C         1.83961377299153    3.63738471332040    6.91784668223821
H         1.05182502517372    4.07186634104413    7.51523719382021
C         2.70542554536236    2.71248572815452    7.48045620111365
H         2.58715696526279    2.42664546305722    8.51482305273951
C         3.72969940294557    2.16431819471134    6.72521501895583
H         4.41422083391533    1.45879349415095    7.17144264175275
C         3.87750606164917    2.52821034126645    5.39892386721095
H         4.70517990748975    2.12613535740877    4.79766337482173
Cl        6.88978198874965    1.61659412003543    1.69700805750742
Cl        6.31143174658965    4.44895978292825    3.09981884652323
N         3.69459009516501    1.18061415090079    1.70986567918178
O         1.32184066872940   -0.69480753698145    1.43747510324181
O         0.41658431245980    1.23611434326096    0.76931192767856
O         0.21575685518642    2.19362630349845    3.83953042559272
O        -0.06877867941492    4.08617645490094    2.66531142103316
P         3.23575400947495    3.82504612589179    3.06560191647588

