31
CSD_code = CASXIE | q = 0 | S = 0 | Stoichiometry = C11H10N3O6Re | MND = 6
Re        2.38767053507222    0.12947924670879   -3.19711568086424
C         0.92387207574691    1.09824964110379   -2.32827222529220
C         3.93777539827782    1.30797125556242   -5.38822113064387
C         4.31959120487503   -0.21988469044336   -5.35274360232856
H         3.58850704349648   -0.75288037987682   -5.97026885536547
H         5.31739919295349   -0.36154043131490   -5.78175303955286
C         4.85545855812522    0.22756756145868   -1.74319881465976
C         5.35157934468133   -0.11226470046722   -3.18487337299870
H         5.67189851267052    0.83770952540531   -3.62385316415624
H         6.21190077922425   -0.78842462203998   -3.14822775080965
C         4.17004441242884   -2.12324590145019   -3.78027217465958
H         5.14388574282999   -2.59978555577400   -3.95416208561219
H         3.45310500733437   -2.53720611918298   -4.50138602212542
C         3.67636349284941   -2.42441150055218   -2.38580230251241
C         4.27694503789049   -3.37510795228525   -1.57516030914359
H         5.12474509761356   -3.93357954678521   -1.93960705820089
C         3.79296197252065   -3.57619767283785   -0.29284946482151
H         4.26275996470531   -4.29500963215456    0.36008382536717
C         2.71009179231664   -2.82620260243790    0.13655271367157
H         2.30651733427609   -2.94304197299136    1.12862234616140
C         2.15955232631632   -1.89832435820877   -0.72954296584329
H         1.32162857558610   -1.28007884059930   -0.44109188853998
N         1.33093826612998   -0.63205682834601   -4.37138506289737
N         4.23259638792862   -0.66639180488898   -3.96066646170769
N         2.62929577927954   -1.70395008729277   -1.95637227356987
O         0.15710761506656    1.73148415626262   -1.78205257854322
O         0.66982722341690   -1.22203206545243   -5.13194351753911
O         3.03553511306705    1.66574714254182   -4.55272488873729
O         4.49380038373028    2.03927327280826   -6.17131271407435
O         3.68471048198279    0.72549190704403   -1.73824655667168
O         5.55883534760699   -0.00175644351417   -0.78295292332986

