31
CSD_code = CASYEB | q = 0 | S = 0 | Stoichiometry = C14H10BrN2O3Re | MND = 6
Re        7.84014577363282    6.02044754798546    4.68060223414648
Br        9.25296286488831    8.14397638199491    4.93371599835228
N         9.09774301607508    5.29132494312500    6.39040474273839
C        10.42538884047169    5.31747026830376    6.26031813995326
H        10.81626153154962    5.54076567054366    5.27621600364080
N         6.63147141144087    6.93642251535809    6.33596454417010
C        11.29358102626860    5.09005023145231    7.31022662175756
H        12.35735204119362    5.12655667445611    7.14281966995670
C        10.76735276759691    4.83196281711578    8.56561762644253
H        11.41034791410095    4.66381660743162    9.41573815312148
C         9.39180738765064    4.79647447071758    8.70345529442540
H         8.93761094284874    4.59743145005309    9.66185483519338
C         8.58569122098440    5.01991762138417    7.59431560098857
C         7.08647619717543    4.99256973555662    7.72909040665536
H         6.67098501398031    4.33953967402244    6.95325913427151
H         6.80544932832564    4.60273651629211    8.70704034106064
C         6.53399355025303    6.38116921451879    7.54738679102852
C         5.97170433247101    7.05654056202550    8.62327018492791
H         5.92635561897471    6.57770747460921    9.58923731420417
C         5.47601241198708    8.33489916085395    8.44292912836676
H         5.03691229377393    8.87633537581811    9.26661774982580
C         5.56092938729624    8.89842185060471    7.18012413618947
H         5.18965220647911    9.89003038214601    6.98052049806661
C         6.14789576592562    8.16811549768508    6.16523695152336
H         6.24183268220886    8.59797266759469    5.17656740286976
O         9.82952903892261    4.96924894504142    2.55811913548731
C         9.06677362291282    5.33158767593471    3.33238915991467
O         6.17828657534351    7.41780352794855    2.47765575753111
C         6.77847713321402    6.86487913046739    3.28175716653585
O         6.12939665898575    3.45967445903978    4.46388617031071
C         6.76452144306895    4.41105094991997    4.58956310634406

