40
CSD_code = CASZAZ | q = 0 | S = 0 | Stoichiometry = C13H20Cl2O2PdS2 | MND = 4
C         1.87718838565524    4.66144331160136   -4.41260365290278
H         2.80969250413404    5.10130031060285   -4.76434534281540
H         1.06108265788420    5.28686368830744   -4.76973464992029
H         1.77508034669979    3.67111589959679   -4.84723622076137
C         3.42619314936339    0.36034604605344    1.26268368816124
H         2.60154002700558   -0.29285584130831    1.53904244167344
H         4.33951236596258    0.03136930429309    1.77234050764567
H         3.59137716719423    0.30687314382037    0.17843139034304
C         3.48464835233573    7.95783454738944   -0.42105344195886
H         3.93747774322223    7.20316113911815   -1.06240731153047
H         3.29512930551183    8.87014921858538   -0.98468479984184
C         3.62002138647425    3.95267409085727    1.97335593899002
H         4.25502469936112    4.76143844166095    1.60714841822993
H         3.65674742303952    3.90564987433055    3.06367545526537
C         4.02765099958852    2.62808232617949    1.35337342756462
H         4.13271108885892    2.72642524930885    0.25850077682979
H         5.01045405962084    2.33722866722704    1.75817879111418
C         5.28694382419897    7.32616317999709    2.72729720669306
H         5.42209181962922    6.36230149661388    3.21636811432144
H         4.68085158350843    7.97667686884272    3.36822555594905
H         6.26058431131678    7.79150691940230    2.53707486653422
C         4.37516135505511    8.26682352750519    0.76914955339020
H         5.33112549702256    8.67756411439161    0.40660485926250
H         3.88360215726568    9.00540710394045    1.41993161496421
C         1.88776387787645    5.73589894406496   -0.78530313062586
C         1.86412071025862    4.51448344133741   -0.12254153479762
C         1.86598174267527    4.59633172900104   -2.91801201229735
C         1.88520325551717    5.76828069979689   -2.17232686783321
H         1.88635103400155    6.72411201880006   -2.67527915361432
C         1.81271861621512    3.38116132814673   -2.24317652545068
H         1.76729561959696    2.45958997294435   -2.80410484461915
C         1.79889238131824    3.34042515376834   -0.86180502949775
H         1.72652099627525    2.40178220283161   -0.33489618140787
Cl        2.00876139208999    8.76004396063808    3.03099188962553
Cl        2.39125841126165    5.92214426918838    4.42294275464261
O         3.06046321514525    1.65569696525103    1.66023830391208
O         4.61677361888498    7.07185361498977    1.49768328468447
Pd        2.07109433665989    6.61747490657803    2.31648564147652
S         1.86648311634448    4.38654014462587    1.66324857887615
S         1.83522546599400    7.29903801970229    0.09073763974688

