36
CSD_code = CATDUY | q = 0 | S = 0 | Stoichiometry = C19H12MnO3P | MND = 8
Mn        0.46334983171899   20.02633680027143   19.56631640021628
P         2.15594370652021   20.03913684539977   21.35546289468756
O         1.76870195278709   17.87447561798172   18.06138581572212
O        -2.12608181369946   19.82194173884774   18.20553903525649
O         1.46243547529309   22.30612303876405   18.01454624241330
C         0.89952534622529   21.31466987594882   21.39276283423301
C        -0.39810388078660   20.76122156769021   21.43417453439933
H        -1.29571120222036   21.34372491187020   21.60963212956937
C        -0.40470849936940   19.34373818322911   21.44204988775993
H        -1.29877771208650   18.76413249288687   21.64701709623994
C         0.88806802311197   18.78094060098701   21.41210520888843
C         1.24351642285228   18.74054944920316   18.60091853391637
C        -1.09801177574087   19.90609152866720   18.70977141694237
C         1.05728336900108   21.38809719321453   18.57116927821482
C         1.23577369676165   22.73582272458083   21.48615767310380
C         0.30676202310086   23.68806255061330   21.90580105562237
H        -0.69815701664302   23.39227155695272   22.16926406445896
C         0.66450198570909   25.01960329002534   22.00012811850177
H        -0.06611316369603   25.74492683873650   22.32660472604602
C         1.94858726416955   25.42544970049988   21.67908849324976
H         2.22118777216725   26.46757380414652   21.75043257700441
C         2.88196127360917   24.48806974055345   21.26627244466342
H         3.88543770847755   24.79628843607866   21.01374242044622
C         2.52882159561359   23.15796208757522   21.17313209242433
H         3.25495106068618   22.42542934075141   20.83908449556213
C         1.18696660863005   17.35339021079287   21.53043976009685
C         0.30298869524133   16.38024434867012   21.06369456767159
H        -0.60722429797627   16.67598538696987   20.55932051530596
C         0.60367692879320   15.04018041315468   21.20934947004545
H        -0.08520795567400   14.29517013227823   20.83969173204664
C         1.78645452403377   14.65091068079983   21.81722810651345
H         2.01834588696049   13.60217828232781   21.92668152685696
C         2.67508284140329   15.61000335845639   22.27445053882832
H         3.60165864182093   15.31211639745083   22.74228331288140
C         2.37883579473626   16.95111682002046   22.13030242462106
H         3.06887888846915   17.70616405360317   22.48839857558965

