46
CSD_code = CATGIN | q = 0 | S = 0 | Stoichiometry = C20H21FeO3P | MND = 7
Fe        0.75939724848680    2.90281155808230    0.75943581965528
P         1.42438028443631    4.80990763301693   -0.11800714124615
O         1.66601974305541    3.15187101263231    2.59025142132005
C         0.67888888850965    1.15597105445709    3.55917165130611
C         1.42195579368041    1.89887740194244    2.47550149531603
C         1.94509678062556    1.23129976785069    1.33177403284781
C         2.73631126492421    2.03969485032498    0.46353511894650
C         3.23065492572119    1.56255628145225   -0.82356813319191
C         2.54812162791258    0.60283901467360   -1.57458145785922
C         3.03154640462707    0.18671391733610   -2.79871963586193
C         4.20545571840008    0.71960154381535   -3.30780917930230
C         4.89301895946656    1.67523479040648   -2.57834919234446
C         4.41069941292125    2.09169941111365   -1.35275292477438
C        -0.08400803634505    2.25294262739192   -0.61079435998697
O        -0.72116561120309    1.86443150296957   -1.48766098666950
C        -0.88101097526534    3.26593689625962    1.28271725676484
O        -1.98074477255256    3.50934513390268    1.50792947245201
C         2.83123566591771    5.68629965713888    0.65957863899168
C         1.95939025198728    4.83449933956222   -1.87748333402218
C         0.11058021029072    6.07699133669071   -0.16135605188900
C        -1.02385723735630    5.76957588655103   -0.91025084876681
C        -2.08809530186513    6.64712210030145   -0.96854775884659
C        -2.03947265034364    7.83959136002801   -0.26277461385500
C        -0.92695036748722    8.14178485173703    0.50200987708061
C         0.14405971678893    7.26503265567797    0.55718892186645
H         0.17363759198610    0.28056938988537    3.16041225562090
H        -0.04452357596883    1.81693115599291    4.03018778600590
H         1.39353169550262    0.83543496627597    4.31768508265706
H         1.73341112395781    0.18646490036771    1.14657114530424
H         3.42392368033186    2.71472237914393    0.97468372899798
H         1.62274159251768    0.19378101037404   -1.19789148943227
H         2.48826791735231   -0.55618938966449   -3.36464359000585
H         4.58047438058653    0.39363082882499   -4.26654020068806
H         5.80934083453628    2.09648934194346   -2.96710954530324
H         4.95797268411472    2.83435424369962   -0.78667778939408
H         2.65313502807469    5.76002340616492    1.73098265423083
H         2.96777897821410    6.67379770722851    0.21821725304082
H         3.73025383335733    5.09279139950682    0.49974132019625
H         2.82469404666102    4.18240379058661   -1.99225849390195
H         2.21397470380081    5.84965578581257   -2.18206564857016
H         1.15780287441082    4.45458485231441   -2.50752462867491
H        -1.06570410928794    4.82473106715056   -1.43738349572146
H        -2.96089172673054    6.40016710581913   -1.55472088819826
H        -2.87292511094370    8.52515181054157   -0.30103299891226
H        -0.89296749051236    9.06344605302159    1.06479480913650
H         0.99726310270536    7.50912660969410    1.17143464568098

