78
CSD_code = CATKUG | q = 0 | S = 0 | Stoichiometry = C31H36ClN6O3Re | MND = 6
Cl        6.26449323953762    3.12473054660831    3.19430306150836
N         6.92024092101999    0.72079959628634    5.80986660361963
N         5.83655977166446    1.13824676327414    5.27350138222800
N         7.13062147661999    1.41691391761890    6.91058554293819
N         3.69376027769841    2.28945387728681    4.29411033262032
N         2.43589239046575    3.90203134522993    4.79269682225975
N         2.69098096680998    2.97467724101243    3.89062376964516
C         5.29549265294291    2.13116180244656    6.03390363473803
O         3.93849099633501    1.73419993943387    0.50140848072047
C         4.35049904074494    1.39143156777837    1.51125008389703
C         0.78819223807004    6.95567867927796    3.59985791647369
H         1.00447646319907    7.82981986231266    3.00807491952211
C         8.26609134911086    0.61514102414619    8.90193998643000
O         7.65198948240348   -0.28536064187034    2.18833595418879
C         0.16698351578863    4.69273595812150    5.12062240132939
C         1.77797308165831    6.00536176096120    3.81368780044177
C         8.31793620251736    1.26660043369535    7.67049200850425
C         6.65771022133839    0.13765646851933    2.56125121935679
C         1.43831356713908    4.88863415759451    4.58036989404587
C         9.50250755325845    1.78228178001912    7.13477106725446
C         4.11906275374460    2.75715918009487    5.50054610164467
C         6.98290329061838    0.02680247364134    9.43979763279996
H         6.16094526951828    0.25480633555883    8.75326750735329
C         9.45125514356120    0.49122755071095    9.61551018797102
H         9.44942881909854   -0.00811087922182   10.57159349907999
C         3.29906981201733    3.81330044661846    5.82871738691295
H         3.27586173141207    4.48015080063969    6.66408166265139
C        10.66247784861243    1.62459545041667    7.88091632344115
H        11.59760563143002    1.99978688949112    7.49873570545198
O         3.46534723714187   -1.57440676676939    3.70816608988146
C        -0.78841733813453    5.67023086974758    4.88078785647727
H        -1.78539273056767    5.55675657123869    5.27341481797919
C        -0.47666584496612    6.78996377657421    4.13148627729842
H        -1.23355383909411    7.53899482444742    3.95236586757862
C         6.13939439763138    2.31583950136153    7.10543185836441
H         6.12188749587127    2.99254161251124    7.93267994034353
C         9.51972747383237    2.44534363926223    5.77882071406890
H         8.52399651804030    2.84007849058873    5.55244097732113
C        -0.14788316210308    3.41863390067601    5.86893515769802
H         0.75643220408265    3.08571883477322    6.39283317718591
C        10.63555743527542    0.99049410766243    9.10910783879313
H        11.54866946547226    0.87973192277728    9.67465889216308
C         4.07255187957729   -0.61491818504203    3.52827811849900
C        -0.53727714407118    2.33910395686023    4.85150607129856
H        -0.75097192917275    1.40253118504447    5.36125495126894
H        -1.42460512052135    2.64683887626681    4.30307735905395
H         0.26477911543151    2.16974724970920    4.13602953017316
C         9.86098366875344    1.39731555910310    4.71377883680415
H         9.83734977697344    1.85523572063490    3.72840651326311
H        10.85332423692750    0.98684028327834    4.88869219909507
H         9.13751443489886    0.58543214954521    4.73069586588867
C        -1.24697179930474    3.58831129301650    6.91635835489997
H        -1.30434264478473    2.69370576606156    7.53234898704977
H        -1.03872975144712    4.43869474592721    7.56241571521218
H        -2.21691061118214    3.73160621848458    6.44789028322724
C         3.13962262860605    5.44802055601212    1.82282313435031
H         2.83543331429798    4.40682139443563    1.90688912992197
H         2.44943029784390    5.95850201437454    1.15449532028472
H         4.13654534893267    5.47724761671600    1.39069431595118
C        10.49400261523744    3.62118814051238    5.70673797951393
H        10.32049304252272    4.17285895304478    4.78615846834549
H        10.34844284973389    4.29820295852023    6.54666227960332
H        11.52694989203246    3.28268729744975    5.70351592531544
C         3.15136017478170    6.12538233334620    3.19837716886729
H         3.87581981695004    5.59512891273427    3.82623253288153
C         3.63067629159588    7.57141027005490    3.07934790938069
H         4.68342248187308    7.57900068595861    2.80762964449962
H         3.08380011266541    8.10753328203616    2.30798881844888
H         3.51454783517929    8.09850351340522    4.02466923419545
C         7.10308725112267   -1.49691737126133    9.52240118860035
H         7.33707263182954   -1.90995889826261    8.54371552859882
H         7.88824878065630   -1.78719802593358   10.21539093081378
H         6.16465919651432   -1.92731279983129    9.86425548687228
C         6.63237522287875    0.62522412471175   10.80394149067670
H         6.57230293986814    1.71036591489537   10.74414106127745
H         5.67118049261539    0.24416402843585   11.14128697381784
H         7.38123051826232    0.36604231128365   11.54717953877836
Re        5.08028713135079    1.02512235594697    3.27808479903699

