26
CSD_code = CATKIR | q = 0 | S = 0 | Stoichiometry = C11H10Cl2N2Ti | MND = 9
Ti       -1.28307361706287    8.71403518248412    3.89602874886803
Cl       -0.26219695180842    9.41671003536249    2.04765798655711
Cl       -2.16348147013838   10.67477424938526    4.25227388574595
N        -3.04489615358065    7.96670911631340    3.64403854777707
N        -2.29591320866882    7.57478601119360    2.77115703825790
C        -2.63266765798033    6.85715533490618    1.62447251948489
C        -3.95955251872506    6.52079062712877    1.34089411917310
H        -4.73484047100374    6.82865723495810    2.02859884865943
C        -4.24104505728581    5.81534022289870    0.18853684335425
H        -5.26147485248427    5.55228344938893   -0.04510142954176
C        -3.21476855516047    5.44782705912376   -0.67167750741659
H        -3.44402788663201    4.89908156695404   -1.57270714876153
C        -1.89845601906705    5.78403030862642   -0.38640054881407
H        -1.10980200144925    5.49756097122228   -1.06500005011336
C        -1.59724375798641    6.48895275029689    0.76281753703751
H        -0.58410771020415    6.78120481247035    1.00814467113072
C         0.47846085070603    8.81350722186895    5.32317665362672
H         1.13956828642928    9.66554356192616    5.44191654752688
C        -0.68120372127469    8.54941555682617    6.08801776521475
H        -1.06825800288514    9.16641481906763    6.88961798128032
C        -1.16983265922128    7.27652813194253    5.71485430111773
H        -1.98802126677738    6.74924333934016    6.19005401484307
C        -0.30608482107095    6.74957626855885    4.72595788872513
H        -0.35021636145222    5.74755498042088    4.31466149671561
C         0.71259879069362    7.69603569125873    4.48767141696452
H         1.57573679409141    7.55308149607706    3.84903787258833

