34
CSD_code = CATLUH | q = 0 | S = 0 | Stoichiometry = C11H12ClN6O3Re | MND = 6
Cl       -0.23924916386676    9.44130027553775   -1.95079126008877
N        -1.32438033852664    7.39285237016997   -0.18909112627845
N        -3.14879573251750    7.93212177578918   -3.60418650813586
C        -2.51748392312034    8.05123290490113   -0.18445992097540
C        -2.75906250408595    8.42627208535491    1.11856333027239
H        -3.55944716900330    8.97047900099800    1.57241526505845
N        -0.84982706677612    7.34790101187236    0.99863152419343
C        -3.15512423309200    8.21263541962858   -1.46016017095306
N        -2.49361708983218    7.69158437483508   -2.53143293571369
N        -4.23364564518164    8.61063135553328   -3.28451470872771
N        -1.68962016688089    7.96778065863023    1.80482813162167
C        -4.29435221298624    8.81201517295840   -1.95007690887986
H        -5.08441939292617    9.35055398875726   -1.47207155844099
O         0.37362977021846    7.32505438531063   -5.08296641289139
O         2.38923596850065    6.79598520045321   -1.04843749236226
O        -1.14182011760594    4.04345729114786   -2.19644989961697
C        -0.87676071672543    5.16303469314501   -2.18323485073252
C         0.07831462712217    7.15481655549798   -3.99232451136729
C         1.33220585244375    6.82788081084447   -1.48137516140360
C        -1.43275319053597    8.05469708529869    3.21686407907097
H        -1.69357281765360    9.05922721363186    3.56059278895048
H        -0.36138214536777    7.89308948531204    3.34980864168488
C        -5.18651914174053    8.99849317730763   -4.28907829070637
H        -5.55230772930454   10.00206936424207   -4.05676556533202
H        -4.64979726361290    9.01877167304152   -5.23952973235538
C        -6.34252051723031    8.00498241101569   -4.35557224991938
H        -7.04224363936182    8.30910392219649   -5.12829219647235
H        -5.96950309054662    7.01209886088054   -4.59475517382884
H        -6.87118391148469    7.96177999464129   -3.40548122735360
C        -2.22664739046778    7.00047752678653    3.98209092340361
H        -2.00023596800278    7.07030405253672    5.04177723217995
H        -3.29626941104443    7.14542712949158    3.84528965544797
H        -1.96062443876179    6.00525840860890    3.63436359885964
Re       -0.48792009004215    7.06363036364002   -2.13157730820745

