100
CSD_code = CATMIT | q = 0 | S = 0 | Stoichiometry = C32H51CuF12N2O2 | MND = 4
Cu       -0.07127870078478   -0.67417050571004   -0.10353170578474
F         4.93637641476867   -1.14497561072910   -1.03467658331162
F         4.08890307933484    0.39525919551002    0.18501732482374
F         4.00039823361934    0.56302386832662   -1.94182373390849
F         1.23639689842721   -2.40854367438980   -2.41102488878362
F         3.35453688329575   -2.75487401711441   -2.45818386760080
F         2.51740039454827   -0.99017356823180   -3.35633460751376
F        -4.22017774196949   -1.07978718575860    0.25655084621752
F        -4.55217687608825   -3.03865962834136   -0.54298644324115
F        -4.05580053773279   -2.79428409707049    1.52676254462426
F        -2.46624315480256   -4.83052630019596    0.03941008794242
F        -0.47876329159626   -4.01146998161577    0.08722658541316
F        -1.71838096985860   -3.86254968031451    1.81272113058584
O         1.54599565899654   -0.11255080409583   -0.88923577886872
O        -1.63654266287067   -1.42729191584793    0.63865004885202
N         0.97276040277106   -1.06312697828077    1.77524754693767
N        -1.20128093346458   -0.14702192368007   -1.92664013174774
C         2.51941981826088   -1.03995006646604   -0.93334115453762
C         3.88964945627597   -0.30742794370265   -0.93785608937533
C         2.43320150119316   -1.79695003895390   -2.29605584992067
C         2.50938674031522   -2.13861243133381    0.16339135100826
C         2.31792012656830   -1.62322532314095    1.59604809250526
C         2.54860178775801   -2.77538915952091    2.57586552326883
C         0.87284990461017    0.03360089558523    2.75263051989092
C        -0.58906691732583    0.18650599271146    3.21274567778413
C        -1.10515125322321   -1.04450989937704    3.99470036306829
C        -0.50498278777170   -1.20021059967518    5.39196092817916
C        -2.63033358971120   -1.02676184316317    4.08178987589472
C        -0.76955561081510    1.47513669807578    4.02177624348441
C        -0.27201124583345    2.70614094615790    3.27763090821447
C         1.21330292757694    2.54817967660183    2.97571830823139
C         1.80503339909873    3.78801111593041    2.31425380213975
C         1.40399959394268    1.31393140175909    2.09929374203566
C        -2.25518708417778   -2.40925996500474   -0.03971101022200
C        -3.77409728707985   -2.34255369317459    0.30400487842657
C        -1.74894284747237   -3.78906800928196    0.47959246628774
C        -2.07475680739898   -2.41867949330935   -1.57838995001286
C        -2.31908288681872   -1.04964105460781   -2.22165770099918
C        -2.49379750823369   -1.22479753285311   -3.73128366810923
C        -1.53401623691473    1.28425446475748   -1.93995491351726
C        -0.33329731456147    2.11839914859911   -2.41814082908884
C         0.08388784135667    1.80271854787399   -3.87311850325602
C         1.51673759844895    2.26409534900221   -4.13484598578573
C        -0.85559545642530    2.38757024607313   -4.92869386847591
C        -0.64422616209774    3.60678097578427   -2.23161575835327
C        -0.95360090153470    3.94089280232274   -0.77937088634853
C        -2.18400436612483    3.15943998470160   -0.31205631208180
C        -2.55770146446876    3.45996630986700    1.07724876221115
C        -1.94103937980065    1.66223577721894   -0.51126328311889
H         0.34443914404395   -1.81200530391168    2.06834821554718
H        -0.44988362140556   -0.32676059762730   -2.59162528688995
H         3.04228490046936   -0.83209686621036    1.79641629707716
H        -3.22316761554156   -0.60378636488624   -1.79972277375624
H         1.50072719723526   -0.19811971355210    3.62564114575592
H        -2.38593636184282    1.46064903837595   -2.61194381033770
H        -1.19504008600148    0.25135518959072    2.30322897015103
H         0.51106074965726    1.84526126362271   -1.77591578517752
H        -3.02613982816857    3.45259571055731   -0.96729819062343
H         1.73890285080105    2.38630615895474    3.92472435638529
H        -0.85186556133569   -1.94224520682955    3.42216999337338
H         0.08592313614575    0.71474391515781   -4.00361458296734
H         1.69028261379761   -2.82480367158859   -0.06570579030245
H         3.44669146173174   -2.69541308317772    0.10156715573884
H        -1.04996335692129   -2.72275409496336   -1.79712146493875
H        -2.75030279315520   -3.15947649372751   -2.00910602162061
H        -1.82470882260798    1.59846277196884    4.26450407851899
H        -0.21557844303716    1.39703269388018    4.95889705295054
H        -1.12713334692608    1.35072409053609    0.14906228666173
H        -2.82510210166538    1.09387741233553   -0.22110124824015
H         1.87971903766420   -3.60287009513340    2.34799537626117
H         3.57289223118632   -3.13237860889741    2.51499194913128
H         2.36158015831912   -2.44768992585634    3.59569284296596
H        -3.38537094380612   -1.80733402544857   -3.94568942302669
H        -2.59082571939100   -0.25907658237437   -4.22078111551148
H        -1.63291330527971   -1.74230238249944   -4.14937210706858
H        -0.77557705815687   -2.17294113883406    5.79619881459954
H         0.58060640898763   -1.13379320122252    5.37674688628110
H        -0.88792062799763   -0.44146984413745    6.06946571864090
H        -2.98493460295151   -0.22048454086736    4.71905586423650
H        -3.05504949944799   -0.90647485711436    3.08991594126846
H        -2.99070496332994   -1.96692406118656    4.49109360347167
H         2.86538432253251    3.64678557014670    2.12058853988886
H         1.31194689054075    3.99162080528944    1.36739265440909
H         1.68410768818138    4.65718078788306    2.95697163988417
H         1.82715806153867    1.96801138003729   -5.13376783394853
H         0.21069629729273    4.19696751759339   -2.56055185770286
H        -1.50332762386103    3.88382032750583   -2.84561825997980
H        -0.83942830544708    2.83455623012004    2.34216892700455
H        -0.44004578407350    3.59650610587750    3.88804471929554
H        -0.10208763790175    3.66535707377984   -0.15598710861672
H        -1.12607341516516    5.01329573158329   -0.66954805638286
H         0.88888701242611    1.45041997728365    1.14584932304825
H         2.46341378295406    1.19877279429672    1.87142931133626
H         1.60346743404713    3.34506631985673   -4.06100547291998
H         2.19704267953739    1.80924975835091   -3.42089526529883
H        -0.74715662782514    3.46694505416082   -4.99207118614722
H        -0.61260394909762    1.97180229803492   -5.90400676192594
H        -1.89723486444721    2.15658234038707   -4.71558940761807
H        -2.41277144600758    4.44653088405827    1.47553961623933
H        -3.14563243047456    2.75962098680734    1.63939347613729

