54
CSD_code = CATPUI | q = 0 | S = 0 | Stoichiometry = C19H20ClF12MoP | MND = 10
Mo        3.36492157277268    1.19132023811025    2.01205221217123
Cl        2.17237429034652    0.78318922185082   -0.07589438644607
P         1.88328498256319    3.79578118370262    0.06437385842220
F         6.53188779902248    1.42995562776420    4.09385336406816
F         7.28459583133657   -0.02261511602540    2.70303879508424
F         7.64068075872893    2.07917256606746    2.36476429139730
F         5.23036270213137    1.45727953869668   -1.55230169149471
F         5.80918294549814   -0.45360604118382   -0.74817182781529
F         7.08077216998265    1.26462830356723   -0.47739607931940
F         3.07529037131545    4.95479510382831    3.77027850644301
F         2.67616691500521    3.19367930597496    4.94434389663941
F         1.09352521403681    4.12384913492830    3.82661931104996
F         4.14970849440938    5.51974599973529    1.25035033597940
F         4.96883545764697    4.01957189081014   -0.02516539842637
F         5.29002112316824    3.92946862362304    2.11234162008679
C         6.71935048319678    1.20656667386271    2.77652128534283
C         5.44992359392489    1.25621245964266    2.02189149924298
C         5.07767126094208    1.13597963126099    0.78026203195328
C         5.79949608892216    0.87093548506625   -0.48283310964506
C         2.42049203791065    3.77991290035442    3.76008885266042
C         2.71254098861034    2.91809711616199    2.61234193665344
C         3.15377014485168    3.31488050115129    1.29910145679710
C         4.37012495235118    4.19180105010904    1.17604339095807
C         2.04053685112186    0.46218524688706    3.84009870136925
C         3.39345674181758    0.29935760469555    4.19388051580255
C         3.94926739145609   -0.69820851646081    3.34711639391080
C         2.97051534186658   -1.08932350897454    2.42610758625252
C         1.78307711988514   -0.35037698404066    2.71785229613519
C         0.25481590646797    3.12431332603939    0.59557000672799
C        -0.96729291967538    3.82032880381779    0.00542662544105
C         1.60828204442560    5.61588541177067    0.00194168508931
C         1.18983481366414    6.26624671239301    1.31541295562248
C         2.44448566765325    3.44194365078471   -1.64902842527897
C         1.32623110507818    3.00399764964226   -2.58561921120178
H         1.30573458102520    1.02787988003873    4.39411731893648
H         3.87086833779582    0.71606846904974    5.06729964602790
H         4.92369458280742   -1.15570088574648    3.46917147462042
H         3.04009700401728   -1.91076115962123    1.72342366146649
H         0.80636741684330   -0.55494920084465    2.29412879907832
H         0.24978530026718    3.21359306193827    1.68748664733411
H         0.22794070744903    2.06467807015167    0.34406545855634
H        -1.85826375170479    3.31379975083965    0.37080880651451
H        -0.97451985989865    3.75999717240735   -1.07872426460052
H        -1.03676962102130    4.86245052069636    0.30187991121909
H         0.83511951245329    5.74949630986275   -0.76189991765948
H         2.52037305896541    6.08582708538380   -0.37218773215601
H         0.86843945383974    7.28821782640079    1.12693951548858
H         2.02401322749262    6.30648513261916    2.00823907075888
H         0.37295413218134    5.73411493430376    1.79542075664009
H         3.20900839602717    2.66627097998132   -1.60067727337612
H         2.91661907668035    4.35902385668231   -2.01336519817513
H         1.75024605524005    2.77162486409727   -3.55924055498205
H         0.58354448496030    3.78726342644009   -2.71964395027191
H         0.84745766214744    2.10656910971303   -2.20310545709365

