85
CSD_code = CATQEW | q = 0 | S = 0 | Stoichiometry = C32H44Cl2N4PdS2 | MND = 4
Pd        2.06893438421643    3.72359291768883   13.50086560313432
Cl        3.76607895981629    4.44990510177802   12.12197310657246
S         4.64766319450813    0.56134823435712    8.55323010773476
N         4.16931080223327    2.27474327222828   15.34080727381953
N         3.50798795937775    1.15387992470948   13.62703953806078
C         3.35678017531421    2.33125454014490   14.26080421731313
C         4.80481494845044    1.06093821509038   15.37776727489759
H         5.48974601168134    0.77371895727709   16.14545357820888
C         4.39458488079311    0.35854993087532   14.29875128543840
H         4.65313486385706   -0.62626080700922   13.96860157398804
C         4.34441982009131    3.35278492798964   16.32218648445799
C         4.71068342346955    4.63691384829024   15.57298848043899
H         5.65770769508438    4.51792910199240   15.05017780547792
H         4.79589165311466    5.46732058449166   16.26920548985812
H         3.94201610895758    4.87396268511082   14.82843406019153
C         3.02700973651615    3.53207019689483   17.07799062493376
H         2.22664484736343    3.76402737053615   16.37416976504954
H         3.11709903249056    4.33318933692885   17.80717003141750
H         2.75747303794620    2.61841256739411   17.60348383523391
C         5.46203685752643    3.01428702075190   17.30887945400392
H         5.20899849086700    2.14680921956142   17.91415629918473
H         5.60019730285523    3.85836447473681   17.97975149918743
H         6.40326972708994    2.83657211545028   16.79310609436459
C         2.93917658273336    0.81560677075691   12.34694802639363
H         2.13318329591766    1.53905736716278   12.13433197184522
H         2.51532811226594   -0.19297753712433   12.39323002009528
C         4.00722551833378    0.90552848890118   11.25131786699354
H         4.46609181617105    1.89574492906548   11.30027040796752
H         4.78700289247642    0.16166233300391   11.42957760054223
C         3.39487192165142    0.67370031728948    9.87959579355825
H         2.69947394012596    1.46538134927525    9.60889729237962
H         2.87717208151208   -0.28661120922564    9.85067152188197
C         4.72231237963092    2.20605382861448    7.89008903258565
C         4.44386088932688    3.34390121684631    8.63109772203849
H         4.17814243673514    3.29475556364376    9.67360538418960
C         4.52883896199141    4.58662768738842    8.02761041629986
H         4.31082963179571    5.46429551714358    8.61741254910790
C         4.90428545873115    4.70458529073379    6.70130695330001
H         4.97232799237023    5.67841317218378    6.23943667716536
C         5.20149018323317    3.56518286013639    5.97019765016717
H         5.50189865963213    3.64608667934109    4.93574314858277
C         5.10795071670999    2.31909805659245    6.55851115245437
H         5.33185079559971    1.42466514617444    5.99673227196459
Cl        0.37152046404561    2.99759478315281   14.87971216241514
S        -0.50735083780698    6.88627254761421   18.44872698637617
N        -0.03127167563287    5.17238747097725   11.66089055129069
N         0.63041636057641    6.29361193420081   13.37427978058570
C         0.78125766104871    5.11599561780266   12.74088231681356
C        -0.66646249286849    6.38634829995207   11.62358649809287
H        -1.35133215650914    6.67352125731135   10.85583368442962
C        -0.25599339853028    7.08896793937127   12.70235914888320
H        -0.51423748523635    8.07395887545711   13.03220962830048
C        -0.20674287480922    4.09402432189441   10.67993639648511
C        -0.57341609587592    2.81030649792223   11.42964154687888
H        -1.52014702454622    2.92994913518600   11.95282776730641
H        -0.65938274125033    1.97975955662608   10.73368758212534
H         0.19544018038583    2.57300447423275   12.17390950093925
C         1.11058771165467    3.91394955857958    9.92417790921845
H         1.91091397347911    3.68229718410681   10.62815937293199
H         1.02025381299078    3.11231524584928    9.19558924016316
H         1.38031999557616    4.82717759427427    9.39803554784092
C        -1.32428269877842    4.43248816799611    9.69314971011304
H        -1.07098978734456    5.29966270697014    9.08754439798393
H        -1.46274580558801    3.58820335912174    9.02259806667701
H        -2.26543209736767    4.61070123642463   10.20890451822496
C         1.19953547528540    6.63212660578293   14.65417238937026
H         2.00536448137800    5.90850817419674   14.86683402200735
H         1.62363749481552    7.64059142893727   14.60753915968959
C         0.13178174636144    6.54270059556404   15.75012245441881
H        -0.32767663012226    5.55276407446062   15.70120150164284
H        -0.64763343273271    7.28701736346198   15.57222913452549
C         0.74474847236615    6.77392840307708   17.12166739937218
H         1.43997240265538    5.98188033229723   17.39174095742070
H         1.26283446204518    7.73402612908643   17.15060057143431
C        -0.58093148456455    5.24154964079384   19.11202495717947
C        -0.30439082764701    4.10374817643654   18.37022729778343
H        -0.04084212288740    4.15300860499247   17.32718415667759
C        -0.38838618545742    2.86094155572868   18.97368094141304
H        -0.17184296579955    1.98332789108939   18.38326592192909
C        -0.76100629730941    2.74288303178078   20.30077467840963
H        -0.82832969670314    1.76900050904210   20.76264053576005
C        -1.05633787952955    3.88224880091398   21.03269750334590
H        -1.35451456687106    3.80125661477582   22.06778593110914
C        -0.96373717452490    5.12841392606086   20.44438959626989
H        -1.18616643894718    6.02280881132307   21.00680163368523

