59
CSD_code = CATRAT | q = 0 | S = 0 | Stoichiometry = C22H27BFeN2O6 | MND = 5
B         8.07187591425823    2.01222107467227    2.72748587925387
C         8.35003130599267    4.45333374116073    5.55167068493337
C         6.89793767100114    1.87169881428461    6.39626244085441
C         6.21193105538124    3.33281881818922    4.58294228032798
C         9.26223239318251    2.08114938590195    5.76734864225644
C         6.73583476365566    1.27149354415803    2.79563081573596
C         5.24759529583378   -0.25225970265210    3.56273311074275
H         4.83199825213564   -0.00788547692873    4.54817902618481
H         5.20564119098904   -1.33389076640405    3.41777499923882
C         4.54775525927391    0.53635501730899    2.44178613442345
C         3.25960628155855    1.19471628140671    2.93332015472324
H         3.48336188034267    1.94730301698904    3.68495351065370
H         2.60970364166835    0.44136785695040    3.37159973921212
H         2.72385227525996    1.67057858518332    2.11575933605068
C         4.28169422425769   -0.34309506707265    1.21553888791454
H         3.90106158925223    0.25298744092486    0.38974752043112
H         3.54558257973419   -1.10515499989363    1.45840568722993
H         5.20101381385167   -0.82928939076404    0.89614525316550
C         5.38429382773363    2.57618973549482    1.18806521728220
H         5.61056511552158    3.54269770407274    1.63745235340705
H         4.34566856408029    2.57403851714122    0.86881704811983
H         6.02809753089216    2.44621038585277    0.31560056118182
C         9.29017375747782    1.19359055432775    3.17476802340240
C        10.48509821627879   -0.62806244464426    3.79646161375242
H        10.57328970570532   -1.60639230568837    3.31924994726960
H        10.58440543554380   -0.74842151146819    4.88127528186399
C        11.48550234643067    0.40411002148215    3.24675860229521
C        12.61980009253523    0.66885369705271    4.23334024364044
H        13.37682268337776    1.31675329673621    3.79837280759796
H        13.09343276499285   -0.27493940301056    4.49264372161647
H        12.23714592106789    1.12583753163358    5.14194459530792
C        12.04614764764734   -0.01706585233656    1.88293185412922
H        11.23345402466347   -0.25151284546811    1.19883184747307
H        12.68076687197489   -0.89300183597763    1.99100975223346
H        12.63609200097018    0.78984399785969    1.45495883509886
C        11.05443447757540    2.88322214302704    2.85406803007903
H        11.11787905498248    3.12639008068782    1.79028553135166
H        12.03541363920811    3.00578215222298    3.30851504888092
H        10.35415290301773    3.57537654935066    3.32718619704005
C         8.32498237212305    3.13126335987966    1.61327571499985
C         8.83696289042679    2.73531099902783    0.37557516952353
H         9.04843043825703    1.68711585464723    0.20725784100990
C         9.07592147185633    3.64170615875368   -0.64260475795153
H         9.47220180221563    3.30036389976229   -1.58938824746066
C         8.80770364169420    4.98599434851910   -0.44982191078867
H         8.99244316914409    5.69805709011429   -1.24118847472589
C         8.30348321054619    5.40756859165853    0.76834279542521
H         8.09416098222184    6.45537396859820    0.93135061388526
C         8.06987203534322    4.49127212283215    1.77914696896358
H         7.68650612967836    4.83801517884309    2.73057174518223
Fe        7.77667844532149    2.80617895840630    5.17901273541592
N         5.58782053696990    1.51936196689671    2.13855824031414
N        10.58864806993207    1.54476133076788    3.06552153991345
O         8.67504856951274    5.49798830715990    5.92004840451308
O         6.32055118723604    1.34385642087582    7.24616027496048
O         5.14199020632775    3.64106279010406    4.25612820980451
O        10.21371916737224    1.61132091289617    6.23365042634036
O         6.60406278262261    0.15212469679568    3.53244797169048
O         9.19736692165063   -0.10734529820366    3.50843352253651

