23
CSD_code = CATSUL | q = 0 | S = 0 | Stoichiometry = C8H8Cl3MnO2Si | MND = 9
Mn        2.79986109825797    1.69747743074551    0.39952075209391
Si        3.18185540301982    4.18552567882794    0.43911131646445
Cl        4.56288536177871    4.76996709268009    1.84659666757219
Cl        1.62385922374416    5.51507293708556    0.68050390133572
Cl        4.05482964295729    4.81010202269484   -1.33574505980034
H         2.43919831395277    2.18535132249257    1.79904404482317
C         1.19423223772064    0.99041311701928    0.68278574319890
O         0.18243518769393    0.45672682287112    0.78132737670103
C         1.87070011565708    2.15484850078798   -1.05355681245669
O         1.29014327277736    2.28752590592042   -2.03415842982302
C         3.55342230416580   -0.07534089881725   -0.53571941824032
C         3.73445417911938   -0.18247644447126    0.86329190146737
C         4.62893202192065    0.84236939639361    1.26315278276286
C         5.00585619060331    1.56592681537611    0.10773140135823
C         4.34278164669753    1.00315451703446   -1.01504619370099
C         4.62687326679514    1.32606731172090   -2.44561726873641
H         3.02545438394092   -0.78564296444409   -1.15826756333131
H         3.38214196237845   -0.99242752240936    1.48810500963772
H         5.07403301079176    0.94842435562071    2.24316704254422
H         5.78613929366153    2.31269408869952    0.06058027264391
H         4.78730473692556    2.39431672258427   -2.58367478589369
H         3.81320741503699    1.00477287536228   -3.09388764358910
H         5.53479973040283    0.80405091622543   -2.75584503703318

