58
CSD_code = CATSOG | q = 0 | S = 0 | Stoichiometry = C27H26As2PtS2 | MND = 4
Pt        0.23139979800622    3.93587029979174    4.13272310076472
As       -0.23413360116690    6.10369998867988    5.09809942429910
As        1.95721977630289    3.80689971469911    5.82180748931603
S        -1.49227981870773    3.81653199925769    2.61162570440071
S         0.68065479597560    1.99937820756585    2.97348841833038
C         2.16096663931069    5.61581779274627    6.61395216914621
H         2.69653214516104    5.54661739070206    7.57005460640520
H         2.76038412777402    6.22581905369519    5.92407171349977
C         0.78567717836901    6.24752086753755    6.79492537404984
H         0.86798078838579    7.30141262485565    7.09213907683184
H         0.23113274187532    5.70924622724596    7.57588265986951
C         0.79047363251973    7.37143750588190    4.03682205273795
C         1.67536130031118    6.85899315919882    3.09469622720843
H         1.71612911628158    5.77557852424177    2.94474778548567
C         2.47184005670010    7.70769955436643    2.34656282462231
H         3.15593225779974    7.30445488688153    1.61420761266197
C         2.38289106526439    9.07720735581224    2.53593930651531
H         2.99964694785314    9.74383858679732    1.95117638620739
C         1.49870839945022    9.59603500115017    3.46891226904233
H         1.42827183435824   10.66520029199262    3.60939424454737
C         0.70459433725601    8.74684879190238    4.21940856350539
H         0.00502957978486    9.14618151175668    4.94767277738177
C        -1.85780408740769    7.12135810680538    5.42503915107645
C        -2.62454437409004    7.43918320787176    4.30594188565766
H        -2.27330533654223    7.12317029148307    3.32660325916854
C        -3.81187135619675    8.13280443853808    4.44713658438237
H        -4.40103501862181    8.38046743131671    3.57646491779753
C        -4.24874456368808    8.50356343334648    5.70973694424759
H        -5.17661823959410    9.04451151036649    5.82276246283745
C        -3.50235945484656    8.17174246605272    6.82753564511354
H        -3.84974512382050    8.45199362737852    7.81176950010750
C        -2.31176050994560    7.47715639639000    6.68841873386109
H        -1.73401247080385    7.21010828889331    7.56667479162966
C         3.74775514404970    3.05259382203591    5.88490648264458
C         4.90228226425162    3.81052225983257    6.03221619188331
H         4.83196432618546    4.88617708357764    6.15277560185777
C         6.14289988381214    3.19413725032436    6.02412993367981
H         7.03869594056663    3.78653345131812    6.14465200315115
C         6.23710685731803    1.82297396124454    5.85752836515365
H         7.20625264280844    1.34648296053201    5.85045498110170
C         5.08978002240598    1.06304706352102    5.68857511118082
H         5.16459803354965   -0.00486913428362    5.54533539627889
C         3.85081359754967    1.67606494927439    5.69595908843917
H         2.94045107202898    1.10040947558825    5.54746313629514
C         1.12269427588164    2.92147420636076    7.33999675357833
C        -0.24672041829400    2.68791341816227    7.27812636735947
H        -0.78564984694516    2.95065804257558    6.36232806430853
C        -0.90924069721128    2.11236185464127    8.34775766618534
H        -1.97284092764005    1.93153038581400    8.29310207494803
C        -0.20116012918212    1.76271769229954    9.48604555974097
H        -0.71335292420929    1.30913951011533   10.32189872323879
C         1.16516343556903    1.98637113556163    9.55301991735792
H         1.71471844610466    1.70689687818454   10.44053809039748
C         1.82694563545747    2.56559156425588    8.48448977146390
H         2.89812244124276    2.73834302027450    8.52777134553595
C        -0.80197983767036    2.26856254376572    1.95917701093261
H        -0.53279359741904    2.37958602248932    0.90856598562350
H        -1.50991820352766    1.44933204730917    2.08669271499685

