79
CSD_code = CATTEY | q = 0 | S = 0 | Stoichiometry = C34H39Br2N3Pd | MND = 4
Pd        2.86292503339175    0.62699119338875    3.04328470780803
Br        4.85008317693910    1.87443870423654    2.43883939291151
Br        1.04803271000422   -0.78426114258662    3.91132252297100
N         1.55967745010979    3.24130468957164    3.65572566486258
N         2.24992969280035    2.13883874876536    5.39953049120485
N         3.64751214006084   -0.99269900690333    2.08014255001982
C         2.20140823577531    2.15146913415424    4.07078354438887
C         1.57519087640102    3.28252103869600    6.00477478460224
H         0.79761910452898    2.91869286066699    6.68606084079890
C         0.96456064042163    3.96956289483326    4.77418853769528
H        -0.12465896895522    3.85315548951083    4.73798605925678
H         1.19479007307342    5.03388165601700    4.73112161173997
C         1.48994338020768    3.74525972016792    2.32254530372232
C         2.27696495568112    4.85139676185322    1.96973206724583
C         2.15206584588425    5.36757105234408    0.68720960810218
H         2.74661249499914    6.21976445570761    0.39873102170760
C         1.28772912348258    4.80603852070346   -0.23086731670877
H         1.20834092882719    5.22161173933634   -1.22446168096131
C         0.53363854419258    3.70669077090571    0.12276719690459
H        -0.13277618483688    3.26429428343201   -0.60146124801026
C         0.61554777904947    3.16334647767813    1.39897992766588
C         3.24675468407201    5.50874012913306    2.92494248051342
H         3.33185334518422    4.89390639950231    3.82486290884711
C         4.65023160754207    5.61403950480612    2.32404767415123
H         4.99954467007823    4.63746218235758    2.00394039276690
H         5.34047040598552    5.99539388118750    3.07329536571046
H         4.66884242957429    6.28826723468687    1.47259239656146
C         2.74269638612963    6.90513711662336    3.30644966719687
H         1.73506970948561    6.87302208396478    3.71918434130179
H         2.72067477145154    7.54859695635402    2.43024309786911
H         3.40879855243458    7.35656764556523    4.03938051996996
C        -0.20309649167965    1.93810736289497    1.72731449300427
H        -0.07432304634648    1.68572559113312    2.78545992616040
C        -1.69604336345680    2.16061259633795    1.48673770150906
H        -2.04849778422760    3.02264695489985    2.04961932837095
H        -2.25179040725970    1.28444873048466    1.81202021628920
H        -1.90849390610734    2.32836175129174    0.43407195216490
C         0.32440545120538    0.76772635956980    0.89032920071086
H         1.41015226806947    0.65843131089065    1.06716345851705
H         0.16718584499691    0.94444001187071   -0.17158316527037
H        -0.17734260566085   -0.15562256024595    1.17239165642506
C         3.07102740352376    1.23336054710431    6.18038910434918
H         4.05932070551789    1.68598465561979    6.34800289601110
H         3.21930167030692    0.31303852933751    5.58071967346442
C         2.42530219830530    0.89320580251806    7.49656990431534
C         3.09056010926077    1.12907137060887    8.69240748701042
H         4.09616540906873    1.52774220566435    8.68059254369302
C         2.47842314148477    0.84827791327962    9.90169306196262
H         3.00515737668509    1.03615333466405   10.82576988463411
C         1.19368613718360    0.33351115502881    9.92504455886898
H         0.71401256898378    0.12050967118334   10.86887832884255
C         0.52934370963303    0.08581359679826    8.73510890730805
H        -0.46820527577107   -0.32681433219555    8.74676656847870
C         1.14100029021042    0.36155485707523    7.52576105109816
H         0.62749592139778    0.15187232513421    6.59961810806129
C         2.53598560467975    4.18263549759949    6.79880999689872
H         3.06524677144439    3.56695368254238    7.52742474647378
H         3.26742185239492    4.62903308615430    6.12238214335963
C         1.76500812971695    5.24434739969587    7.52902200088604
C         1.77951567094630    6.56732592161298    7.11157249048803
H         2.38365517596605    6.85538901779814    6.26375146346119
C         1.03966910377214    7.52597122273280    7.78272229990491
H         1.06250425287240    8.55266466492766    7.44800355859245
C         0.27556290717128    7.17017181016864    8.87972512324379
H        -0.30188733639397    7.91704613734085    9.40374240400993
C         0.26020329943184    5.85273113662521    9.30777116512849
H        -0.32795320978347    5.57061061647331   10.16849561756740
C         1.00021620164271    4.89681397271407    8.63729911271495
H         0.99409343159668    3.87100730058487    8.97991055044143
C         3.86541020329148   -1.03240675378716    0.76849035722812
H         3.48818038632512   -0.19856189543637    0.18269032048034
C         4.55363363301548   -2.06763109505547    0.16145862898439
H         4.70293633972845   -2.05914776277441   -0.90638463652968
C         5.04790610831351   -3.09558927941681    0.94853855744278
H         5.59363038329376   -3.91542064813482    0.50692123758885
C         4.83129470641230   -3.04368055625836    2.31635275937763
H         5.20190548972283   -3.81572203638226    2.97158812341060
C         4.12437494728904   -1.97600139780654    2.83979835755301
H         3.92746502789964   -1.91250295950003    3.90869234254507

