57
CSD_code = CATVUQ | q = 0 | S = 0 | Stoichiometry = C28H24N2Se2Zn | MND = 4
C         8.34645876575063    2.63171257618117    4.77300043874785
C         7.03126758111447    2.93918395053313    4.36138837570794
C         6.73948395944926    2.84019047148550    2.98231026482403
H         5.73360357623578    3.07026694998143    2.65796608350476
C         7.67211981378028    2.47350033194621    2.04837811254647
H         7.40532849247787    2.41358292769937    1.00427623214735
C         8.96855069550621    2.17740933594402    2.46575339872143
H         9.71899208676759    1.88649713102187    1.74600610494831
C         9.28402640403035    2.25599468120609    3.79842640751591
H        10.28415661710939    2.02463162683528    4.13973206504657
C         5.91469071203274    3.36122149274552    5.15544265584326
H         5.00766040473908    3.51858665231019    4.55781683803673
C         4.53986166965918    4.00527184843489    6.92274200310852
H         3.82064573272789    4.14778676296976    6.09977837140122
H         4.67476464840996    4.96884184268435    7.42425608358967
C         3.97543391749861    3.01548227098837    7.91244136126391
C         4.17423306630144    1.65043248536010    7.74754154206121
H         4.74802230041952    1.28623989375931    6.90611956751174
C         3.64721287892691    0.75327600863428    8.65936990332841
H         3.82347883810696   -0.30409422630438    8.53163201717472
C         2.90058589530631    1.20962137841240    9.73144122580079
H         2.49337364628889    0.50899018598178   10.44465655448960
C         2.68035762089866    2.56676392363029    9.88823166754242
H         2.09723480890553    2.93114267100446   10.72085670586246
C         3.21996798752253    3.46604490074043    8.98681549678409
H         3.05820551348409    4.52698684389703    9.12157899699891
C         5.81218242392593    4.13837660960467   10.78447962322118
C         5.94298682106583    5.48355079495780   10.37721040118163
C         5.15078485557276    6.44989146732939   11.03132285641139
H         5.24421280889142    7.48239428984996   10.72068963748841
C         4.26428452790130    6.12734866998633   12.02662168156899
H         3.66335746981177    6.89421164505079   12.49137269899597
C         4.16714194609835    4.80170701282016   12.44387000305279
H         3.49298101545778    4.53272682209169   13.24341238866161
C         4.93569864826346    3.84022436998926   11.83645353722627
H         4.87273793334798    2.80770674933599   12.15040344209851
C         6.84571498544179    6.02275157706330    9.39656798775417
H         6.97711096750342    7.10975678167804    9.48170440305461
C         8.34383094214808    6.20100524531196    7.61054553156090
H         9.31600347229863    5.70383841089184    7.54878324279113
H         8.48743293716997    7.21386906649708    8.01629391211578
C         7.73939859767510    6.28926706719717    6.22955357926987
C         8.45391801733909    5.88930354192975    5.10909432550224
H         9.46027863899641    5.51188152736172    5.21986977702527
C         7.88321588579149    5.96755074978144    3.85068796991676
H         8.44683197559631    5.64633430568176    2.98750721787153
C         6.59235985307007    6.44318011537224    3.70066789837649
H         6.14474047824744    6.49540192267906    2.71919063511503
C         5.87835680964552    6.85787256677224    4.81234838223254
H         4.87390679608827    7.24053686611052    4.70113448261467
C         6.45188873630911    6.78740330126622    6.06858155728641
H         5.89534374870747    7.12317336583680    6.93353432028785
N         5.82107413652035    3.58514788695823    6.41316303755628
N         7.49537554967538    5.41589083412612    8.47680673432398
Se        6.76415123708368    2.65019564231303   10.12317540110622
Se        9.05416318395432    2.65086099701681    6.52242181865560
Zn        7.24911696695826    3.43187487904961    7.89597304117509

