37
CSD_code = CATYAZ | q = 1 | S = 0 | Stoichiometry = C8H20F4S4Ta(1+) | MND = 8
Ta        5.10347434860604    1.24127954955785    1.05613956030576
S         5.45529395845875   -1.50451871551744    1.78079205672887
S         7.93128796132545    0.61588485145822    0.77619681997334
S         3.53460402498536    2.73284045712507   -0.89473425685342
S         3.52359858721964    3.14647694322493    2.48557669681191
F         5.63510398102324    1.24351960490467    2.81735643824589
F         3.44772878724809    0.46675264869482    1.26928298745212
F         5.26281986868892    0.49141584265165   -0.61043417631447
F         6.07246110815184    2.76512823844386    0.73556449473823
C         5.64158094414826   -2.42396325580349    0.22583737420041
H         6.14788568505665   -1.81971577361592   -0.52044279356788
H         4.63284277772400   -2.64339928211838   -0.11015542334261
H         6.17109912123447   -3.35184509938914    0.41700998089210
C         7.16376512025590   -1.52912866217053    2.43055749168238
H         7.12396137758978   -0.88872022629448    3.31192700101652
H         7.37936413248085   -2.54987648887577    2.74839621846397
C         8.21982490204115   -1.06264915059021    1.44664229605190
H         8.26485010230110   -1.71966938259793    0.57921520765151
H         9.19791226471608   -1.05797680511408    1.92736526848771
C         8.58496174811205    1.62384298520404    2.13346230989243
H         8.03713656717322    1.43079422400546    3.04985719878602
H         8.44528061857852    2.65820024741319    1.83467118397979
H         9.64307539027659    1.41298955759084    2.25443979741590
C         2.45310054547840    1.39662917999604   -1.46911710781354
H         2.00311022732942    0.88205304501756   -0.62654914402965
H         3.08848727791318    0.71051306054544   -2.02059147084651
H         1.69656215633930    1.81124866077851   -2.12819868817540
C         2.32398628049712    3.76608346246441    0.01006338447174
H         2.73777413817479    4.77345254849792    0.00569623088599
H         1.40117790925463    3.76959600593065   -0.56964239131042
C         2.04181189751852    3.29861016289755    1.42536678070179
H         1.59948350537321    2.30227802205072    1.43948032465634
H         1.35792340312949    3.99302683083580    1.91481633066298
C         4.31913490140714    4.75975611769420    2.23668555275750
H         4.77557689575756    4.81637515306432    1.25329181222680
H         5.09032650833380    4.82939144085364    2.99763933739668
H         3.58903097609462    5.54882400118658    2.38593531570741

