45
CSD_code = CAVBEH | q = 0 | S = 0 | Stoichiometry = C18H22Cl2N2Pd | MND = 4
Pd        1.53236404507882    1.38288878305978    0.09683154327067
Cl        1.08339097100069    0.46652762925884   -1.89059903175623
Cl        2.33260088411003   -0.54633557954767    0.87752304506514
N         0.81649956115896    3.34139053526930   -0.40001820684101
C         0.96380086165107    4.17260990867029    0.81285458588027
H         1.15843742293939    5.21862262053944    0.53313650787824
C        -0.55335623511056    4.01079376236144    1.09680001999941
H        -1.03458661931469    4.96946049943730    1.30315035979738
C        -0.64332701336176    3.60310415702707   -0.39748281736486
H        -0.83804736010598    4.51254828994708   -0.98411337687510
C         2.05787754699658    3.74256047261011    1.81069448910666
H         3.01749635815512    4.04631557035750    1.36433532169915
N         2.08852624194526    2.28955068153424    1.94022379155961
H         1.38487907440170    1.95299783919366    2.59751829291399
H         2.99638452885524    1.94633683609627    2.25360374908340
C         1.54561258932375    3.76524029216312   -1.58385428381138
H         1.35183087805943    4.82251866408755   -1.81376635728140
H         1.22972825168825    3.14504479687842   -2.42426872120787
H         2.61968980468702    3.62119058561590   -1.42873326599464
C        -1.55953197699843    2.48802946123965   -0.87370396380070
H        -1.96977999117537    2.72660681095289   -1.85104877339729
H        -2.38340956038525    2.34748959109743   -0.17884436384944
H        -1.00368544149486    1.55189113868449   -0.97405877833838
C        -0.97800318101051    3.05453335584301    2.17565271231393
C        -0.90591073369774    1.66510961966602    2.07347292760572
H        -0.54830406737671    1.17099589317647    1.16346145030178
C        -1.29068650949634    0.86123892090339    3.13625371982351
H        -1.21921327432804   -0.21102681816180    3.03534406275917
C        -1.75874827013615    1.42267434710991    4.31167269601575
H        -2.05690013917677    0.79195800106154    5.13524530341182
C        -1.84737186917092    2.80012131456855    4.41881193251363
H        -2.21728264514596    3.25263811482631    5.32663520407345
C        -1.46290166467141    3.60354445477177    3.36109868432558
H        -1.53338537015022    4.67770171499126    3.45956406261984
C         1.88110362059356    4.50618204411543    3.11252242059182
C         1.49046688912646    3.89836402172710    4.29757201856502
H         1.32293227303384    2.83298180694894    4.35429937921871
C         1.31009527379472    4.65053793004039    5.44637598862666
H         1.00479953726337    4.15956825604592    6.35795833612764
C         1.51791851131728    6.01733557799127    5.42893826120712
H         1.37390060958502    6.60113875810488    6.32518067586619
C         1.92261693433445    6.63079584726335    4.25525341458377
H         2.10032944740592    7.69546671369649    4.23254937562236
C         2.10528609998817    5.87961937772649    3.10961999885974
H         2.43526370581348    6.36513740104897    2.20213760923070

