51
CSD_code = CAVBIL | q = 0 | S = 0 | Stoichiometry = C20H26Cl2N2Pd | MND = 4
Pd        9.84307014586900    3.37687750230242    2.89177048005912
Cl       11.33226075840629    2.31580684938900    4.20403589493151
Cl        9.70270291973917    1.65736015385458    1.42894889196161
N         9.68026451350679    4.94037479999363    4.28273879315715
C         8.42569069129497    5.61550401875474    3.91259771719462
H         8.39209399704295    6.63201030704681    4.33650894516340
C         7.66025893412861    4.65173721159154    4.86962932719035
H         6.96611848516195    5.18545220480645    5.52365996686308
C         9.04262747670898    4.40114126848539    5.51204146959278
H         9.33704872917143    3.36567539177887    5.70465811144607
C         8.21109175655840    5.75298693183225    2.39875531625637
H         8.94794156182564    6.50559826702140    2.08442175648485
N         8.55496113357073    4.51742614547486    1.68379660198990
H         7.72584598753542    3.93358624574671    1.55903066989546
C        10.88890674942558    5.73380099516788    4.39506205294690
H        10.75345447545955    6.59695420289303    5.05760385388483
H        11.18264307446812    6.09426950936658    3.40679010205257
H        11.68437267393183    5.09667993894743    4.78389710970091
C         9.26190958640816    5.20257420143212    6.78679978913522
H        10.29941572675587    5.13752771788163    7.10413728680432
H         8.64017242427267    4.77932397196678    7.57235068223844
H         8.99138757660484    6.24956920879200    6.66481991902880
C         6.81735571497666    6.26571067592565    2.03657859081836
H         6.77891919356815    6.53979190926115    0.98450882744291
H         6.57166262960782    7.14637149818672    2.62479061450496
H         6.06776069869173    5.50119087726044    2.22005403059690
C         6.93133147397107    3.48900157403097    4.24490455804958
C         7.49365190429205    2.22300920757193    4.05626920277772
H         8.46471113450163    1.94778724034509    4.46922173581702
C         6.76808697980043    1.22907877111681    3.41022081440027
H         7.22083898421192    0.26064884881222    3.26276482848408
C         5.48253240458163    1.47063218819595    2.95969509886299
H         4.93130551357167    0.69761902572417    2.44643499754410
C         4.89403753668563    2.70024636393412    3.20369578747075
H         3.87445046385595    2.88670829649049    2.89908114952649
C         5.61108960938330    3.69328714921430    3.84650375008698
H         5.13429218857235    4.64086924577653    4.06046252668210
C         9.16861211151308    4.75641186168520    0.36212493527713
H         9.27052050920489    3.77979140939716   -0.12133467728239
H         8.52730245182655    5.40144001699124   -0.25455105223235
C        10.53056162269033    5.38542209767209    0.53634882957488
C        10.70713671000238    6.75538856807421    0.37909184902107
H         9.88128938502105    7.37077219945547    0.04582320426349
C        11.93752297308581    7.34300063598360    0.62809526096711
H        12.05812568467976    8.40876546163525    0.49960434555730
C        13.00474994658023    6.56571939439444    1.04283863690384
H        13.96022605839476    7.02527393918993    1.24719379628631
C        12.84977394007830    5.19399917568568    1.17178389744446
H        13.68761783874226    4.57984378682577    1.46529820385815
C        11.62270238980277    4.59955092947786    0.91695011868333
H        11.53939257025641    3.51263060715373    0.94679140063104

