73
CSD_code = CAVMAQ | q = 0 | S = 0 | Stoichiometry = C30H36Cl2N2O2Ru | MND = 5
C         8.63772965551376   20.18037134744286   11.14370152405922
C        10.05077623509632   20.29450069939153   11.03156369574226
C        10.58382344654141   20.77875199020427    9.82613593982199
H        11.65685197665296   20.86874559926818    9.73888994666596
C         9.76010293269846   21.12523481389818    8.77760117382596
H        10.18261193750081   21.49488244060560    7.85550251862061
C         8.38447159210310   20.99727569963315    8.90420281456187
H         7.73835797426419   21.26374032451561    8.08129641613809
C         7.81950838470311   20.53012537685389   10.08185187011047
H         6.74630224319946   20.43908197045223   10.14618785505906
C        10.86008439171672   19.90990542137875   12.13056468598776
H        11.92984681010623   20.06378574999356   11.99025120622488
C         6.84741274293354   19.70442742951112   12.70632954758807
H         6.26119633648343   19.25704466146208   11.89025716304889
C         6.73519168600615   18.82808783287519   13.94824630163607
H         7.16351031416016   17.84436420984352   13.74984417918698
H         5.69392322089786   18.70364242918469   14.23270859849741
H         7.26358310571651   19.30505477277212   14.77693482026728
C         6.38722639765942   21.13197145952019   12.99556298128420
H         6.46487148035974   21.75849197634323   12.10990363125872
H         7.01667466687895   21.56034989019820   13.77439489198077
H         5.35531434338545   21.12823798199204   13.33595003712133
C        11.53890291427871   18.58551761890583   14.76909766469552
C         9.92853757250589   17.59213423430887   16.35819029480839
H         9.76405310731537   16.51281396538662   16.25505931187348
H         9.20640315205337   18.12836008512877   15.71744385185457
C         9.73932668559109   18.00846334640818   17.79435564377703
C         9.62588500518689   19.35128208455712   18.11512382528762
H         9.65216202467119   20.08278176538025   17.31961754334175
C         9.47505311606272   19.75654640241939   19.43043985422789
H         9.38469155211400   20.80541506358896   19.66600086106745
C         9.43598309714734   18.80709579438255   20.43360014238568
H         9.31512009429225   19.10741276536369   21.46401450299473
C         9.55105330300778   17.45945645551372   20.13345548651340
H         9.51908640708097   16.73949264988216   20.93582831372921
C         9.70979341804006   17.04745933299716   18.81557697424533
C         9.75778454436023   14.73622322802133   19.40405186313425
H         9.86771840623904   13.79610607245818   18.86540421161624
H         8.78661711930715   14.75163178005247   19.90857362973137
H        10.55660313680754   14.82072030724165   20.14830685229152
C        12.42397499790596   17.40714789074919   16.57579353546395
H        12.38607206396895   16.31241818600083   16.59797671535225
H        12.45875910285729   17.77432669098274   17.60616775812577
C        13.56711038715933   17.94645642141356   15.71339773985940
H        14.20075635038763   18.65833486145056   16.25193974375091
H        14.20770274223524   17.15650067382510   15.31205300542055
C        13.60940771947901   19.25903176079124   13.60698580310364
C        13.93082604953246   20.61135799688030   13.73632477205606
C        14.70005747311818   21.20314579516244   12.74695833522565
H        14.95196557234566   22.25075122020439   12.82937435059721
C        15.14377630103422   20.48267754924984   11.64512707640202
C        15.98736837916065   21.14910363558430   10.60067804170480
H        16.05931663347771   20.53499358191091    9.70671643173851
H        16.99407066876402   21.31601088262155   10.98396592094682
H        15.57005454620537   22.11730973759685   10.33086364780898
C        14.78734689463786   19.14719888375815   11.53043503592527
H        15.10444692910845   18.58464124483231   10.66388301200437
C        14.01562183791228   18.51832170207227   12.49744553198671
C        13.57038813180229   17.09892943808488   12.33342858371453
H        12.49454197874403   17.03051611394411   12.49876595741449
H        14.06511346097446   16.44351157298160   13.04951360048158
H        13.79451635270665   16.74099767579926   11.33251706419205
C        13.40007436556020   21.40321826895559   14.88964404532156
H        13.76310282058426   21.01323487907728   15.83925925487256
H        12.31088297833690   21.34450507515119   14.89947614559260
H        13.69353994450827   22.44581142360184   14.80829249335105
N        12.85946900756478   18.62354268587797   14.62887508749358
N        11.25291756301112   17.92800928207199   15.89330031773630
O         8.22554799161839   19.69626713790339   12.34076189651909
O         9.84986045749038   15.74413682996810   18.42793494839214
Cl        9.71092617868483   16.96605960807312   13.00212085754402
Cl        9.56273065840466   21.01812094113356   14.92181965132000
Ru       10.00000693009121   19.15482332305449   13.64198101229694

