77
CSD_code = CAVMEU | q = 0 | S = 0 | Stoichiometry = C31H39Cl2N3ORu | MND = 5
Ru        4.39129620834961    0.93135687854692    3.46882986040417
O         4.67094074639357   -0.94283267227218    2.22070094410710
N         4.60459739007152    3.02324471205940    5.70942260689391
N         3.03888253328037    3.30904714060484    4.24930378623835
C         7.39884668447200   -3.38445735785686    2.58064767902705
H         7.78192015523759   -4.28218969855014    2.11920855506677
C         4.08030440637088    2.54708494576566    4.58553324843591
C         8.05926684959229    1.77670813974183    7.73032350217159
C         9.29524640470109    1.36694731934922    8.47252778142248
H         9.57711670622741    2.14477450173886    9.18284385172349
H        10.12766096489938    1.22336279619596    7.78720222784108
H         9.12992204669425    0.44640209636031    9.02670544260297
C         8.04308356810141   -2.83980691736905    3.68200465353420
H         8.92666825152173   -3.31709809395042    4.07818601244512
C         5.65520688622719    1.70736939002826    7.45912968586087
C         2.75673571262516    4.36417660435021    5.20618233478767
H         1.77169191225188    4.20292065402855    5.65850740869267
H         2.75645896009036    5.34019557172637    4.71167084667163
C         3.90050806871323    4.20201122206105    6.21049485250203
H         4.57403464520097    5.06503657325398    6.22643207806036
H         3.54784458941152    4.02683961999623    7.23031294259710
C         2.86651028075711   -0.34196942905823    0.82581916170238
H         2.24204287184285   -0.04723359642151    1.67196368577254
H         2.21765197735584   -0.65583437235867    0.01243567532605
H         3.46504851386835    0.50585707918510    0.48835476303126
C        -1.45860156603661    4.76397728716900    1.82329036679171
H        -1.36992529950342    5.69249336023444    2.38406342931340
H        -2.22003121063949    4.14203734514595    2.29694241255133
H        -1.79431385551510    4.98943144085649    0.80080866021765
C         4.31631392193420    1.15825663885195    7.84187771040769
H         3.69985780129975    1.91840093815278    8.32101206397357
H         4.42738321932006    0.32629326006883    8.53158571170203
H         3.79410166291048    0.80925307160672    6.95072002771169
C         2.17162544447007    4.32898200170005    2.21573068923482
C         6.25925701586028   -2.79060245724480    2.05818152016538
H         5.78493412553161   -3.23769227587868    1.19832654342728
C         8.14908050189078    2.62112229418536    6.63138173002940
H         9.12118882669160    2.95815958915356    6.30113364608459
C         7.55614648729005   -1.69113192164264    4.26613622976451
H         8.05010443682892   -1.25413165610699    5.12178108070862
C         6.80945882129043    1.32197453705744    8.12566457798744
H         6.73172326462531    0.64210741957992    8.96209041027709
C         5.75920403408897   -1.63630159900903    2.63867501838344
C         3.35374678523974    6.20947411849234    1.28098092835640
H         4.27842220386427    6.74168595422508    1.11849616077919
C         3.77804815445329   -1.48713269141560    1.25214179202349
H         4.36089406497437   -1.83053744129970    0.38457403951688
C         2.16199376782431    6.70514565238797    0.78276433466763
H         2.14738159024850    7.63541079827173    0.23352259720363
C        -0.27830681903784    2.78345472754665    1.16753323269941
H        -0.68548100294122    2.91054997473781    0.15424572936763
H        -0.92905951527983    2.10068468258235    1.71703210083792
H         0.70864214059313    2.33934968777016    1.07894490506468
C         5.77363739237370    2.57968575209697    6.37767245864872
C         0.97115427736692    4.79526238105783    1.65995989709761
C         7.01987701562592    3.03108555662239    5.93987355725872
C         2.97126354110503   -2.63213348428780    1.86137010927747
H         3.61718689540405   -3.45409626366572    2.16095661753058
H         2.24401003292880   -2.99875842299013    1.14199569872048
H         2.44725226526423   -2.26891918959939    2.74437299809066
C         7.12254287229885    3.88418943934028    4.71502043534287
H         6.70124091875776    3.34543515218606    3.86425072294643
H         8.15960028629640    4.12325980219361    4.49756682763032
H         6.56804501896636    4.81431466977702    4.83081664575736
C         0.98499073091989    6.00240051650248    0.96337076228445
H         0.07050911317052    6.39169861186337    0.54310521890392
C         5.88067513194896    0.13259071742015    4.32569128585437
H         6.41123760032985    0.50094239181889    5.20360194215704
C         2.19425286061869    3.10757632137994    3.10034022667119
H         1.17491177524327    2.86974463540362    3.42944540093409
H         2.60401396471340    2.24052108833094    2.54715671040919
C         6.40887675406392   -1.05698458726885    3.76274784058126
Cl        2.56762179252473   -0.05462522926966    4.48193736486890
Cl        5.39995063678765    2.10950663236003    1.77641152931128
N        -0.20395845142329    4.04930006557825    1.87276145741301
C         3.35018069409840    5.02699233934211    1.99836995412633
H         4.27405054411789    4.62978325950659    2.39442310198296

