77
CSD_code = CAVNIZ | q = 0 | S = 0 | Stoichiometry = C33H38BCuN4 | MND = 4
Cu        0.43261116286745    8.52397870838802    3.55141513352870
N         1.44343400439092    6.05900142880692    2.57192955878485
N         0.84884259461231    7.19726083046584    2.18621007211423
N         0.91912482351483    6.04538262137208    4.88490762918528
N         0.16375469238229    7.14984822809590    4.93793996177951
C         0.56020388250596    7.08026870925766    0.88969940053261
C         1.00296624634775    5.84190762857194    0.43278687786723
H         0.92766296404815    5.45439752677415   -0.56227967386676
C         1.56573370397259    5.21323100067016    1.53025701610585
C        -0.13258469041371    8.13995885402372    0.11330531389239
H        -0.98596928619655    8.52395812051313    0.66758071099992
H        -0.47446769173136    7.73602596713671   -0.83585154234750
H         0.54660669710776    8.96687904656771   -0.08686725367773
C         2.20161245173954    3.87458740468248    1.60366683087147
H         3.23525251489967    3.95544781947492    1.94000894041700
H         2.18737097474754    3.41731544897771    0.61812060770734
H         1.66582945143501    3.22117329271855    2.29314108782309
C        -0.63655839612239    7.03985595829444    5.99995531415990
C        -0.36664817732388    5.84080159225219    6.65086715484650
H        -0.83220742917019    5.46695190582906    7.53905595729799
C         0.63743198866445    5.23097159453773    5.91868882958789
C        -1.64206644314632    8.06994484460261    6.36857760749128
H        -1.15174802513477    8.94441513925741    6.79376345734648
H        -2.32575489516565    7.66452871464624    7.10966791456640
H        -2.20855085830563    8.38187244791514    5.49314924188018
C         1.31875064347479    3.94158946383703    6.18636494650040
H         1.22372808788545    3.25576834502377    5.34389383220897
H         0.87268147813595    3.47633088296887    7.06099630042392
H         2.37624117122815    4.11477322341664    6.38465587243949
C         1.95563791936017    5.82893393656153    3.90076562621350
H         2.14880125919885    4.75775178182726    3.94107997364978
C         3.46669139096657    6.76385501859050    5.88814124156108
C         2.65637079799773    7.73058800368297    6.48555086277777
H         2.06257928290820    8.37619731000390    5.85254086053783
C         2.58184319863707    7.88914772093154    7.85689936457870
H         1.93375286651023    8.64584163071343    8.28124309753113
C         3.33658507851449    7.08184842627165    8.68992916201457
H         3.28216435724745    7.19862446999333    9.76356162228825
C         4.16850618017256    6.13034025414826    8.12801885324898
H         4.77461709133934    5.50017920138741    8.76555831550818
C         4.22789036721963    5.97969890746085    6.75260392342385
H         4.89329086928746    5.23331033300447    6.34106307081818
C         4.65412433502541    5.52273798964364    3.83830446857526
C         4.59158950893084    4.14300973574752    4.04769502088199
H         3.72192091333121    3.70152963088328    4.51836786215368
C         5.62189621446806    3.28555639286489    3.70015389296652
H         5.52124206480881    2.22279244993478    3.88058670847289
C         6.77861797710157    3.78465318813859    3.13014311587519
H         7.58535676705713    3.12041498032679    2.85322639226647
C         6.88825595938105    5.15017144342329    2.93718542136279
H         7.79264053480094    5.56322367572207    2.51097235285468
C         5.84872651627263    5.99246485711705    3.28997246799089
H         5.97528247860686    7.05377011771024    3.13605322679490
C         3.71729225425711    7.94561715220803    3.46454836783334
C         4.15487771595421    9.11095162672871    4.09548816772193
H         4.21896539316534    9.13360707175636    5.17422257917109
C         4.56587583907603   10.22777750518884    3.38673374712870
H         4.91908272665783   11.10349352401961    3.91696119784197
C         4.54741381095614   10.22148756209256    2.00238037545096
H         4.87572512535094   11.08770166383976    1.44426744014002
C         4.11895550891498    9.08107194141050    1.34545965600771
H         4.11847655712093    9.04960132659736    0.26348451222564
C         3.72606887535047    7.96844849458953    2.06686215048190
H         3.47675953566026    7.07224781393338    1.51586233293635
C         1.29162412691817   11.05984555713367    2.14605378117345
H         2.22823870533001   10.95906827483240    2.68297710307450
H         1.06822576675922   12.12313631828734    2.03823250238462
H         1.42383384447364   10.64347790957776    1.15145578493127
C         0.15765226951657   10.39779365377959    2.86853579880116
H        -0.75506303067930   10.31625380357912    2.28505104254850
C         0.03489387681466   10.36200777191885    4.24210911338231
H        -0.96439367989694   10.27830136522338    4.65631600026497
C         1.05208661937658   10.93919047037469    5.18504212793704
H         0.92118607415592   10.54175050752468    6.18852025749297
H         0.92354650485846   12.02214999490088    5.23314195454257
H         2.06819333440451   10.73240012273056    4.86018589921281
B         3.47381467510989    6.56315036260496    4.27558410250016

