63
CSD_code = CAVXUT | q = 0 | S = 0 | Stoichiometry = C28H30N4Pt | MND = 4
Pt        7.61665777794381    1.58059269640363    5.80870174331142
N         8.89446958094843    0.37039533974598    4.36234194534542
N         1.88185085426653   -1.65368190310508   -0.40983009086084
N         9.21665943958748    2.65767658719314    7.02069263116131
N         3.23963275523553    5.30490810368482   12.81073570929951
C         6.17465516870649    0.91359073358191    4.61414670062991
C         6.57274142882739   -0.13981815004475    3.77563160650771
C         5.73837422000492   -0.64113244712366    2.79477517577152
H         6.07903653182954   -1.44674430314908    2.15746305016603
C         4.47263510534339   -0.09346808698236    2.59529287924599
C         4.08213292879810    0.97725370617923    3.39473391520186
H         3.10271012956978    1.41312996604132    3.25692350722898
C         4.91622111601487    1.46880033783815    4.38354980351732
H         4.57284796006761    2.29727527886715    4.98672665662913
C         7.95545433444350   -0.70093035050786    3.98543730298209
H         7.92377918873505   -1.42533889161261    4.80773143470538
H         8.31338857559033   -1.22348027875557    3.08384716459942
C         9.14402292818573    1.22872605927663    3.20681159101331
H         9.82548735890020    2.03406682090922    3.48110589441303
H         8.20417492810508    1.66341731293759    2.86449664826906
H         9.59148862042962    0.66134764339778    2.37794742685592
C        10.14408178808599   -0.23859474434199    4.79730328271239
H        10.55316457918456   -0.90581017999586    4.02485646757366
H         9.97734106059037   -0.82221773372474    5.70320235690205
H        10.88986946865337    0.52802596087582    5.00297653861963
C         6.45239644504407    2.36899912944842    7.21386705566385
C         7.07713842868591    3.37045355120350    7.97411813028927
C         6.46213628055214    3.93558464006583    9.07518537284418
H         6.96063703795413    4.72331613149318    9.62477327429697
C         5.18874711932143    3.52348642006357    9.46289999144858
C         4.57180168203592    2.50994748751907    8.73443473976960
H         3.60235005055100    2.14738223309671    9.04594504899674
C         5.19637382766220    1.93791784626979    7.64021745891541
H         4.68907544082377    1.14439260990647    7.11005755286281
C         8.45301643330137    3.80597275821427    7.54009573557885
H         8.99879294865517    4.28462276695914    8.36900038284125
H         8.35463772546870    4.53911675045619    6.73101430236180
C         9.57286301216224    1.76971249796982    8.12468182108242
H        10.12596583988447    0.90947116221906    7.74750350022925
H         8.66600468192572    1.41718907620710    8.61746245948358
H        10.19829728066058    2.28716247128633    8.86655557963976
C        10.42829482167050    3.15507628880761    6.38336150257800
H        11.01726130264517    3.77522545444815    7.07454013203754
H        10.16913232632203    3.75992389610025    5.51386184606681
H        11.05751287052427    2.32607217527410    6.06235837716063
C         3.58148637592339   -0.62863017563439    1.56101046189795
C         2.77859607889120    0.20787654550025    0.78466045675129
H         2.81115474799777    1.27828165607909    0.91933523793157
C         1.95713825742390   -0.35343470994151   -0.17655981179372
H         1.32438342200839    0.26770965474522   -0.79817767194616
C         2.63957368186034   -2.45093804431528    0.32542897784261
H         2.54825989585128   -3.50828388870943    0.10981987233756
C         3.49810881992416   -1.99904485732364    1.31153113792498
H         4.07936119077740   -2.69820084160426    1.89351589817759
C         4.52119129823019    4.13516773797461   10.61634642002646
C         3.14893833003093    4.38883012857162   10.60882940336387
H         2.55366599558117    4.15250804870903    9.74020436117449
C         2.56734785269983    4.96977683205354   11.72139347631092
H         1.50598262186002    5.18280064602588   11.74612274285634
C         4.54048346473284    5.06494583221370   12.82320749919864
H         5.05690991363821    5.34896079614644   13.73180168157800
C         5.22524132011076    4.49009899312808   11.76752643286794
H         6.28556334856173    4.30166082177972   11.84296781755259

