49
CSD_code = CAVXAZ | q = 1 | S = 0 | Stoichiometry = C20H22AuN6(1+) | MND = 2
Au       11.31282358245019    1.33132817550281    5.80755793021120
N        10.70590627284011   -1.67726243405225    5.80308753690405
N         8.93584502896700   -0.50039490815960    6.05442129969039
C         7.15671317617923    2.02968131635007    8.12643402980357
H         6.98894523389710    2.83583151639307    7.42856713115996
N        13.60904813930742    3.36433229717376    5.52353359035425
N        11.82949872376899    4.22995735822559    6.34113711355287
N        10.57961059288053    2.40682072703606    8.19854037263911
C        10.26282859696061   -0.41073468754085    5.85621076983807
C         8.55002371732680   -1.80720703509400    6.13552522933190
H         7.53527991505264   -2.09826928272748    6.30548184779012
C         9.66835520871604   -2.55291479025503    5.97109256129898
H         9.80507098818143   -3.61417816377023    5.95790548068997
C        12.06593427598368   -2.08396949035299    5.58987707678632
H        12.69489265980939   -1.19745756333019    5.53075508490239
H        12.15238633983803   -2.64958057673640    4.66061333035668
H        12.40609306691285   -2.71233338282270    6.41409074774037
C         8.04968460816719    0.61289663853051    6.23769130465643
H         7.12406102971577    0.43175660810374    5.67897911273139
H         8.53218270053114    1.50824811525699    5.83683317942871
C         7.70599169924282    0.82644106477788    7.69687908160646
N         7.93170757759339   -0.18903347265650    8.51462523935848
C         7.61153668896581   -0.05909527604533    9.79077845424077
H         7.81395691558611   -0.92382834929769   10.40814632253420
C         7.05057165021428    1.09230931600745   10.31879268116556
H         6.79457894506697    1.15125750375953   11.36425553418486
C         6.82193544014305    2.15982273575748    9.46323674682759
H         6.38624000760671    3.07698533990340    9.83085316343308
C        12.32352172018670    3.09846631579647    5.80348688426501
C        12.79807480686902    5.19245768751385    6.40398138473750
H        12.61871355831814    6.17129976594653    6.79754304324883
C        13.92227321152126    4.64643963458846    5.88179293788119
H        14.89740829710258    5.06285294878076    5.73774705943924
C        14.53841895287569    2.45025960907133    4.92190684511855
H        15.31943549253645    2.17603092266595    5.63399244930521
H        15.00548891437408    2.90846644874885    4.04916745236854
H        14.00132122316828    1.55397392536290    4.61571325535334
C        10.48320122170874    4.38610213430273    6.82989239585006
H         9.79964418857627    3.92806930513390    6.10808075044753
H        10.25760135218366    5.45073096477904    6.91375486762722
C        10.30576146957789    3.70381287332022    8.17025626097152
C         9.89306219174319    4.39840965152494    9.29869247111088
H         9.67131442685025    5.45313421166991    9.24759802851939
C         9.77455384394950    3.70518266201522   10.49414857435908
H         9.46079960810617    4.21691219515119   11.39133739799797
C        10.07703646141998    2.35341700966778   10.52009604761813
H        10.01002460329238    1.78326816321758   11.43214035687259
C        10.47424666494160    1.74855186008355    9.33756523529678
H        10.71629500883289    0.69585241085838    9.29190434839705

