38
CSD_code = CAVYAA | q = 0 | S = 0 | Stoichiometry = C12H19N3O3Pt | MND = 4
Pt        0.83334915556672    2.24479741097805    5.38214952848251
O         0.55551459569540    0.01780236312894    5.08796532423719
O         2.18233039493862    0.25532492302495    6.44376296475911
O         1.55621750106616   -1.70440262233021    5.85434421317875
N        -0.25827095365191    2.56170873973882    7.14688970929804
N         1.95493764984381    2.54187587890577    3.63898932457611
N         1.44609664931382   -0.50345449424209    5.80583614536517
C         0.88940976954957    4.17482268275047    5.41992164408382
C         0.05172081812027    4.85003539942832    6.29570037869261
C         0.06745322838994    6.23604070454661    6.29301550002062
H        -0.56466832170749    6.79966044176048    6.96459871439742
C         0.90138736165435    6.90235297087784    5.40350013801987
H         0.90783578052278    7.98226044703700    5.39848452979414
C         1.72229540629627    6.21797136450929    4.51548515817647
H         2.35319052678401    6.76803285526641    3.83154462361232
C         1.72087552571923    4.83188893248325    4.52445370337969
C        -0.83564340089532    3.93789188788710    7.11039592263882
H        -1.81405610680800    3.88413125120989    6.62117355092409
H        -0.98880693447932    4.30339035485299    8.13395155118578
C         0.74069763475400    2.49671719149404    8.22081881154568
H         0.26060895241698    2.59778279932538    9.20125606195396
H         1.46372267208672    3.30230983668593    8.09163431643543
H         1.27435117783711    1.54683042654755    8.17767579749856
C        -1.30706900041915    1.57303924646743    7.38804896597876
H        -0.86285774608046    0.58144128498656    7.47122477623926
H        -2.00885657305815    1.56544212366575    6.55338684906403
H        -1.85060104435456    1.79006975534937    8.31562402019840
C         2.57168445260488    3.90159533445950    3.69152140024708
H         3.54938719636458    3.80908220351051    4.17572938576660
H         2.73199008008329    4.27618086345751    2.67243026131060
C         0.98237700652702    2.48620425923230    2.54331953938164
H         1.48518253223139    2.57626712749139    1.57228802961717
H         0.26662930553551    3.30160064489129    2.64966918146474
H         0.44709796556289    1.53592971769546    2.57951113038073
C         2.98639302279278    1.52582019951040    3.43507595589449
H         2.51500789602184    0.55198605781423    3.30078424616750
H         3.63618455385475    1.47944728550334    4.31009282735238
H         3.58880126932053    1.74602215009788    2.54574581868026

