64
CSD_code = CAWDAI | q = 1 | S = 0 | Stoichiometry = C27H26BN6NiO3(1+) | MND = 6
Ni        4.42143620864364    6.94058690899398    1.68176201700742
B         6.36918504936111    7.08884087669632    4.13243078271838
O         5.34139764840796    8.18298870229973    4.21793264660281
O         5.69392211242264    5.76450501455861    4.26728727217051
O         6.97446208937602    7.14761816537922    2.73132841056193
N         4.31964527423922    7.98280068945260    3.38818760255561
N         2.52517078475105    7.04960690706808    1.81896835766787
N         5.05437587157097    5.36853092993685    3.14356981569148
N         4.23033007738449    4.77891370909655    0.76935666036478
N         6.20826764807508    7.18984061251324    1.66025030957113
N         4.55508154435817    7.60659573686691   -0.27734378913350
C         2.80666828696356    9.04028924976866    5.00120333149074
H         3.68787022214075    9.03784818627600    5.63922777341950
H         1.98448514932007    8.55219501630020    5.52012883352918
H         2.52600240100025   10.07406795348366    4.80099915612606
C         3.12621095199440    8.33401559505341    3.72866607973861
C         2.10594634133486    7.89592117777827    2.78886751602517
C         0.76527904652809    8.26336161288188    2.90881750047475
H         0.46923849496096    8.95606315143186    3.67916245563115
C        -0.16645063687806    7.73876088084850    2.03446511381288
H        -1.20715435525191    8.01207667445860    2.10938920041435
C         0.26709899333383    6.84568592174583    1.06539888683396
H        -0.42395935184280    6.39269123464080    0.37354564614822
C         1.61570024292601    6.53917687588262    0.99456204105291
H         1.96984340578245    5.84221781310375    0.24772980157833
C         4.82148060080955    3.12338652752441    4.10497930666018
H         5.25154823617497    3.59565419895749    4.98509955216267
H         5.47312675742705    2.31241985621886    3.78405392133942
H         3.84980118666279    2.70568540218678    4.36451763082035
C         4.68411362224862    4.14649536833504    3.02820734115039
C         4.19778549263469    3.79797462365648    1.69048303529724
C         3.80309906047462    2.49812242987103    1.37159597218371
H         3.77214753017073    1.73785214796732    2.13407264495440
C         3.45964787148885    2.19391631549530    0.06726056325675
H         3.15165829675877    1.19528685920763   -0.20136396046069
C         3.53504425897393    3.19562523417562   -0.88738151713448
H         3.30085283955256    3.00290904098235   -1.92162655968005
C         3.92040640911229    4.46418085354385   -0.48178948107622
H         3.98531437266308    5.26157934623505   -1.21114757788995
C         8.25105420466237    7.49930972206926    0.35280197958496
H         8.73518114628463    7.30639011050390    1.30655974558561
H         8.53110718286108    8.49530838523601    0.01256518329392
H         8.60210686074175    6.77380922917505   -0.37921503872242
C         6.76924567908109    7.39747409545819    0.51066101468772
C         5.86543647916718    7.62378079821170   -0.59976270240415
C         6.29696707239948    7.91301440087918   -1.89617390981029
H         7.34837765157640    7.90844291649507   -2.12964741395980
C         5.36054128566118    8.20815968702579   -2.86816833239488
H         5.66925414463846    8.43463843700294   -3.87672870950837
C         4.01671390643945    8.21858601535109   -2.51938432833075
H         3.25481979212887    8.46205690018693   -3.24143144473264
C         3.66586848854307    7.90819148506600   -1.21609070201788
H         2.62466699425996    7.91013371107552   -0.92107520064227
C         7.51849949973204    7.28181147758470    5.21448185691495
C         7.69001468471391    8.48758461315209    5.88902008608134
H         7.01517508748539    9.30386154589646    5.67885964927939
C         8.70295870919143    8.64992592989445    6.81712342121576
H         8.81735590110642    9.59321180583656    7.33093048303265
C         9.56925014612226    7.60467235589094    7.08767335361710
H        10.36033224926350    7.72895412079002    7.81217367884053
C         9.41565142375525    6.39889460082933    6.42497243539594
H        10.08894709587107    5.57968892200236    6.63092699466905
C         8.40014712078971    6.24158551518865    5.49914889909778
H         8.28144715746467    5.29902541832286    4.98542470759035

