41
CSD_code = CAWHUD | q = 1 | S = 0 | Stoichiometry = C9H24CoN4O3(1+) | MND = 6
Co        3.72667092653883   -0.63207020273945   13.41459263726066
N         5.38523643523329   -1.21982077783896   14.23230297947472
C         6.25892869195474   -0.08459105733347   14.57817157015127
C         5.34632063749117    1.01455892954021   15.15732055617595
N         4.21504944186141    1.17224746829858   14.20073407661413
C         7.39058271791233   -0.51371696548749   15.50496860298554
C         4.78161574205444    0.69145722062399   16.53483009923914
N         4.50068868320922   -0.22876183705364   11.58425205321802
C         3.39635842631176   -0.02901173163458   10.60449530853359
C         2.25852440928453    0.67899899057846   11.36624464020384
N         2.04824567653173   -0.07935850651692   12.61226985089058
C         3.00736266572862   -1.38199270223153   10.02241571832019
C         0.96423546141317    0.81820235654108   10.57298003101437
C         2.68602748093675   -2.45039348239224   14.27611664729620
O         3.26174700320305   -2.34075754807128   13.08670005016086
O         2.85082618222163   -1.26827148245761   14.85370688103629
O         2.13733759752478   -3.40681422279803   14.72903894708873
H         5.90903656909354   -1.93371194385072   13.72171149010817
H         5.09867476263193   -1.67298079606340   15.10753062917587
H         6.69446480072784    0.29836197767820   13.64624793453546
H         5.92084459678689    1.94700617140747   15.21768784220593
H         3.41652131003107    1.50340743901270   14.74214097055652
H         4.43733577757755    1.91062877942104   13.53539140322053
H         7.96268074602271    0.35045194044349   15.83011186647906
H         8.06713827139426   -1.18807160294653   14.98554530258247
H         7.00717501590412   -1.02554629596062   16.38312750263614
H         5.57600251647858    0.48986080856911   17.24512705729962
H         4.10828591055222   -0.16081896195295   16.48860447286274
H         4.22084844979250    1.54470307665686   16.90930418947726
H         5.02205425559579   -1.04952285318324   11.27605904580656
H         5.14497314760015    0.55819488020738   11.52984920719383
H         3.72958049961119    0.62639857820062    9.79032313356269
H         2.61189213403445    1.68141511351234   11.64039114842557
H         1.39706723089303    0.41338939050918   13.22695239977868
H         1.57444948713762   -0.95674856734613   12.36890261328881
H         2.15152692427719   -1.29184492503604    9.36239099046278
H         2.78577599100516   -2.09557716634436   10.81202264771339
H         3.83139858956639   -1.77647826111562    9.43246110708330
H         1.15651394153729    1.28909429254938    9.61326613709136
H         0.25506858231862    1.43880008872101   11.11537080440626
H         0.50463231001900   -0.15041561211553   10.39753945438229

