69
CSD_code = CAWJOB | q = 1 | S = 0 | Stoichiometry = C28H32CuN4O4(1+) | MND = 4
Cu        1.01062476845932    0.29832639973455    8.44815182322442
N         0.39619279663210   -1.62944642985042    8.59507350093003
N         2.72826736973191   -0.48712100030576    9.18466315734341
N         1.21718439608741    1.54132992579760    6.85750520453201
N        -0.20913075659244    1.78291503563291    9.09310940452890
O         1.90267579050467   -4.15385272237796   10.64881269511827
O         3.70090571614183   -3.92552824656452    8.88294336156086
O         0.61689164400484    5.07647456189875    6.91507736338507
O        -1.77214371866298    4.24533190376272    7.00667322793161
C         1.31701464923164   -2.37691858119514    9.21309848523802
C         0.96503259181740   -3.56228890969970    9.88908687423317
C        -0.35614540026612   -3.99689989237509    9.76861766786014
H        -0.67889709038480   -4.91593179411658   10.23032906588083
C        -1.26556219563888   -3.23670206157297    9.05706165717833
H        -2.28423561887670   -3.57306453682955    8.94640696740740
C        -0.86821281347014   -2.02455623777529    8.50501699327351
C        -1.82384297848753   -1.13425250378631    7.78007619076283
H        -2.58829916143305   -0.76144310553536    8.46013234255606
H        -2.32322081298937   -1.68195854548807    6.98340024651434
H        -1.28502045162678   -0.28870170925520    7.35605251145538
C         1.58811486443472   -5.36338987329332   11.30705177900376
H         0.78298982374302   -5.22613832678464   12.03469894301915
H         2.49726610575677   -5.65487735566067   11.82928992273894
H         1.31334823193233   -6.14604088161731   10.59478256403746
C         2.67354931967340   -1.82321372017874    9.18194010080069
C         3.84256412375672   -2.60393123591864    9.08327637587823
C         5.06463368478248   -1.93091267421138    9.13458000378393
H         5.99520104873338   -2.47413406333194    9.10407228083328
C         5.08469652096781   -0.55088093376953    9.21641071539359
H         6.02447553275441   -0.02471749180727    9.27213164996508
C         3.88888484993152    0.15743420095118    9.20050096211182
C         3.85264185356781    1.65082400391200    9.21494774516194
H         4.24744456084836    2.04884861872446    8.28094674220019
H         4.46132857712562    2.03909641988229   10.02888484427847
H         2.82520923249669    1.99033270166173    9.33416502367843
C         4.85651955317069   -4.73373376830469    8.80351656261826
H         5.48537181724824   -4.45094766874834    7.95428712098026
H         4.49193564874396   -5.74858664664487    8.65720631702285
H         5.44022867909808   -4.68877615597475    9.72685262647651
C         0.64963537542455    2.72581854243572    7.10808042680017
C         1.09568677858573    3.90140812580205    6.47170461508904
C         2.05591579661114    3.75818480144665    5.46852161720897
H         2.41008502889692    4.61432199311950    4.91753393608866
C         2.56707185165037    2.50581282526761    5.18245587697058
H         3.29807953816041    2.38470676729777    4.39880169937687
C         2.15333045377615    1.40659294998510    5.92569096028298
C         2.72147609163971    0.04268787642786    5.70467885485715
H         3.76347818635782    0.01018221498936    6.02089664534571
H         2.68268202831683   -0.22004525836764    4.64962756338627
H         2.15701066884547   -0.68669208630365    6.28287077438702
C         1.02247833088529    6.26730499193149    6.27287898922564
H         2.10060080750179    6.42645573180420    6.36737589628616
H         0.49557644823206    7.06871904980694    6.78702664300459
H         0.73990554375750    6.26797789552546    5.21670191730247
C        -0.39757023211163    2.69464976658823    8.13287789968061
C        -1.55590224358788    3.49656168286019    8.10170702402066
C        -2.42722973711131    3.40073532080752    9.18827885663489
H        -3.31105466640716    4.01544766235182    9.24240745112606
C        -2.16057905311423    2.50127984772014   10.20377263957369
H        -2.82041110269022    2.43244295382296   11.05403484352546
C        -1.05215388343384    1.66767378033855   10.11243483771123
C        -0.75144171777543    0.63341379581224   11.14738499361138
H        -1.52687384384199   -0.13099952113445   11.15884580872120
H        -0.71269331568969    1.08555972778678   12.13643634963844
H         0.20503420700942    0.16276404299821   10.92574008121885
C        -2.91173293740183    5.07858733428003    6.96085449461497
H        -3.83619637153870    4.49581683664454    7.00888198206925
H        -2.85962821380371    5.58961647425969    6.00147102206200
H        -2.89876257009057    5.81834717468741    7.76579427930769

