65
CSD_code = CAWKIW | q = 0 | S = 0 | Stoichiometry = C30H22Cl4N4S4Zn | MND = 4
Zn        5.57920312884561    7.01051336974362   14.75363535457139
Cl        9.59809002094015   10.71105474115380   12.37882948717657
Cl        9.96867507982824   11.90708667007141   17.55561914172740
Cl       10.94617856761565    8.08123174576237   14.25307656687554
Cl        9.35536999124586    6.63587461615243    9.35148579701303
S         4.47056919135131    6.38985203112001   10.30726441249011
S         4.41442405916941    5.75757551864767   13.12915574464839
S         6.07379181145627    6.62835417481797   19.35461807478380
S         4.74335909114188    7.50665589691408   16.93271920834223
N         5.72913483571075    7.87256533707343   12.00373179632149
N         6.18893959068441    8.29765117873349   13.19139074731508
N         7.25894847066982    6.47740244358618   17.05948183684150
N         7.36672570709952    6.47584391487156   15.72917558775047
C         5.09632082854561    7.39260651322266    7.84753576870862
C         3.96650731066954    7.84656065974511    7.17755155455249
H         3.23037124622093    8.43075782996842    7.71037227562766
C         3.78172357443302    7.55431823577904    5.83852608551230
H         2.90148046952715    7.91385117236769    5.32662760481273
C         4.72220579865167    6.80136777779198    5.15587242544704
H         4.57792367619609    6.57343267852200    4.11030892391337
C         5.84730903519760    6.34038570296678    5.81819353857765
H         6.58272226142295    5.75153757146687    5.29019759862392
C         6.03229394113344    6.63180431495642    7.15751440372379
H         6.91052335750136    6.27124954053339    7.67250478158228
C         5.29076821666187    7.69721344998912    9.29534927649650
H         4.83403785504752    8.64187171702290    9.58443875167161
H         6.34043674223352    7.68917412620285    9.58239665284585
C         4.96740287515414    6.82985698071757   11.91131034392561
C         7.07954115357322    9.23127436506226   13.09823725183292
H         7.36704548848044    9.53716083396396   12.09424892425098
C         7.75232833549862    9.86559132949154   14.19527803536775
C         8.93793088233691   10.58684728162858   13.96386161564958
C         9.62088881637192   11.20483247593229   14.99419643499007
H        10.52854614814353   11.75118051714293   14.79189381071162
C         9.12928282285153   11.11496741056837   16.28813267965264
C         7.95539961985053   10.41944994651491   16.55272024706467
H         7.57203524165667   10.36293769157736   17.55886825646190
C         7.28051274038559    9.81871842771360   15.51352325852117
H         6.33610140027968    9.33288568040314   15.71002579964562
C         8.82678199911823    6.93294815142398   19.39840600155955
C         8.79672699761271    8.22907931688377   19.89748028168233
H         7.97861697066671    8.53137083220449   20.53581014356404
C         9.79899568950031    9.12625601176128   19.57766612795989
H         9.76933007335418   10.12906829528520   19.97691824932691
C        10.83903287552520    8.73987945241779   18.74909118051258
H        11.61914104678327    9.44151946781717   18.49449020984846
C        10.87737787496856    7.44894685513394   18.25135429942156
H        11.69016773939008    7.14226387069876   17.60840684557256
C         9.87751945626728    6.54864049484573   18.57621539334887
H         9.91045226270059    5.53903902308296   18.19252342977782
C         7.74019230025043    5.96604828025557   19.74333512654471
H         7.69607021745841    5.77977898774462   20.81737856935872
H         7.85191575792008    5.02501748614508   19.20839619000523
C         6.14849239651864    6.81128064777075   17.63105270253182
C         8.55893322524644    6.53976299265688   15.24146415366341
H         9.39653480267467    6.68967268302049   15.91762179454797
C         8.80063044434807    6.48156316621476   13.82166856095958
C         9.86080746427639    7.19712507916186   13.24773925049737
C        10.03635569546137    7.24506742520009   11.87708288651279
H        10.83825692481235    7.82731674662815   11.45203925983704
C         9.16315225025803    6.54319859732978   11.05794712929589
C         8.15041486165533    5.76231002625750   11.59941878342736
H         7.50292810880381    5.18685326204994   10.95667412773827
C         7.97899694697521    5.73791313514270   12.96719799852598
H         7.21272623366084    5.10908384295651   13.39715124795084

