38
CSD_code = CAWKUI | q = 0 | S = 0 | Stoichiometry = C15H15N2O5V | MND = 5
V        -2.75904281285924    0.27184653596800    6.36835395771607
O        -3.73446258389203    0.71586159480477    5.02679820241662
O        -0.98024511452074    0.00431861215506    6.85749484308202
O         1.91888963340071    1.98714770104030    7.57636749561391
O        -3.41539489899424    0.85125268764254    7.61611984265568
O        -2.90104835599549   -1.34578267573727    6.22992714565772
N        -1.85963803058226    2.09130774793433    5.94829550866803
N        -0.60390471585897    2.18463841692882    6.41724394868886
C        -4.36621579943793    1.81174461230355    4.71436070035196
C        -5.63494000857951    1.74540195404751    4.11544083755903
H        -6.05889596398394    0.76682019342550    3.93991696659449
C        -6.31820549577918    2.89212664218762    3.78254755097837
H        -7.29732666854913    2.82240778088467    3.33265372942192
C        -5.75209780362597    4.13997021031186    4.02703494726525
H        -6.29425796369200    5.03722252785343    3.77081032681618
C        -4.50125633876318    4.22993410666906    4.59353371440579
H        -4.07754038854124    5.20412031750904    4.77954238310011
C        -3.77597682375036    3.08329091846509    4.94918806296463
C        -2.44359619226766    3.16231857783365    5.50124590640290
C        -1.73364126369309    4.48449034034380    5.54812889468396
H        -2.22289825037009    5.13823567247425    6.26849398612453
H        -1.75259850183884    4.96403147135415    4.57180525429071
H        -0.70523203185551    4.32372530298046    5.86083692530285
C        -0.22379598305715    1.03941720270252    6.91390512869876
C         1.08949812148402    0.92437848982608    7.52468809018019
C         1.68626840842917   -0.16649956966843    8.11258908558460
H         1.25433502201084   -1.14103948338804    8.21410867620189
C         2.95490122900712    0.26867196780963    8.54402108333497
H         3.70120689731693   -0.31175823947404    9.04619047881985
C         3.03613125739079    1.58435166435802    8.18937926547008
H         3.81584799736832    2.30962933555900    8.31734050796954
C        -3.25032563541277   -2.51973261474446    6.83019286387457
H        -2.33737489654085   -2.96569840691970    7.26841424011036
H        -3.64366285823044   -3.21741654125946    6.06993143967451
C        -4.28734791457650   -2.27249843777453    7.92663125785508
H        -3.88395666307319   -1.53342343135969    8.62258661865429
H        -4.52020418871905   -3.19326158669195    8.45510559900628
H        -5.19429441936709   -1.86505159835862    7.47887453380084

