107
CSD_code = CAWNUL | q = 0 | S = 0 | Stoichiometry = C40H62FeN2P2 | MND = 4
Fe        9.54170887960411    2.63982773036946   13.52101458329827
P         8.62039028635330    1.11415145986134   12.21541152616043
P         8.65138779451755    4.72779317205707   13.26543753553033
N         8.35508666422226    1.72369645215899   14.88097539225259
N        11.06263029034580    3.54371145895123   13.62444298685181
C        10.08444428798647    0.24395520737261   11.43461299958413
H        10.71693975017149    0.01183893425549   12.30479617603985
C        10.86634486521721    1.22040990998516   10.55707700046121
H        10.27861413289377    1.48254122646279    9.67334869307840
H        11.05916474714534    2.13649301723648   11.12239860760654
C        12.18928882607123    0.59882988414705   10.11856391878414
H        12.73003462583432    1.29432091895760    9.47297115609480
H        12.80635665914625    0.41463334994945   11.00056377836761
C        11.94694635887480   -0.71513217430717    9.38183771667647
H        11.38731364330840   -0.51970226828831    8.46352361785758
H        12.90097196991982   -1.16585775857542    9.10127897094508
C        11.15460581529848   -1.67884471649768   10.25987268291807
H        11.73699388528123   -1.91566171531662   11.15319384902493
H        10.97222646539123   -2.61109514673293    9.72027229040977
C         9.82341519198335   -1.05140230962124   10.67233727178657
H         9.24297168564473   -0.84175650389995    9.77173653816418
H         9.26319202826162   -1.75283583955169   11.29447179686120
C         7.30544037359889    1.12605677038971   10.86782871340834
H         7.85016371610959    1.37762189631313    9.94682991362132
C         6.50147444452454   -0.15129036724049   10.62811826263141
H         7.14922721422441   -1.01044298713335   10.45814034238028
H         5.87932811265832   -0.36042279157244   11.50057981177234
C         5.58489177174057    0.04708577025968    9.42008166016458
H         6.18920435004395    0.25524280587858    8.53359053446878
H         5.02275450801858   -0.87035494785924    9.23173003091877
C         4.61957797059220    1.20404110359566    9.66133637944093
H         3.99091528065317    1.35486787014355    8.78122984938899
H         3.96505618889279    0.95733294903485   10.50051471055739
C         5.38734309060635    2.48333010077696    9.98236932902896
H         4.68618481581479    3.29038230215629   10.20687840925328
H         5.97457968138539    2.78195911817765    9.11011450442704
C         6.32143703601630    2.25600811278493   11.16654979910142
H         5.73336631781678    1.99195153029565   12.04870835126392
H         6.87576766741139    3.16621891933063   11.40159035444612
C         8.03443494988350   -0.16206959870191   13.42204576665157
H         7.33248521915819   -0.89398911396326   13.02438636595160
H         8.92509576657061   -0.67887997922879   13.79208913237854
C         7.43050131152308    0.66003810818652   14.55857186827121
H         6.44511321247253    1.04829283259068   14.24390240626990
H         7.26978404517241    0.01845739331861   15.43745345448354
C         8.13621984885885    2.40174363205963   16.03589031705692
C         9.16279931482226    3.23071739690184   16.53826940154255
H        10.08668934598284    3.28905403232609   15.97714154219436
C         9.02289669473848    3.91935841222561   17.72080333810120
H         9.83473271169704    4.54037252180557   18.07723708410345
C         7.85892277143155    3.81199718312404   18.47131209142292
H         7.75233992137631    4.34816610723004   19.40256534566350
C         6.84307560710536    2.99271807530325   18.00780243966967
H         5.93178309810944    2.89132662445218   18.58340939494838
C         6.96758680315464    2.30104228521015   16.82037617619083
H         6.14688904737468    1.67865017458754   16.49517513749171
C         7.17784797378281    5.61821104063021   14.02556027145131
H         6.90138446739931    6.44923695913559   13.36308107101364
C         6.02565370489578    4.61297178420157   14.06520768561452
H         5.81253566891464    4.25935490786336   13.05455091059441
H         6.33848293927352    3.75602812139008   14.66448578571469
C         4.76330849048766    5.22214884444979   14.66634057402264
H         4.41511068313546    6.04348084362341   14.03332280130185
H         3.97245899734460    4.46964478378116   14.70138459563332
C         5.04890003849349    5.74835470625344   16.06727939469995
H         4.14617575927713    6.18950814681296   16.49583808217007
H         5.36360897013823    4.92161142837498   16.70678871293910
C         6.16293043995260    6.78548392006117   16.00815173305830
H         6.37310296897410    7.16523352715766   17.01005116626924
H         5.84233589723403    7.62909879887141   15.38993444760520
C         7.43498230827536    6.17463013752981   15.42313234526473
H         8.20751299471648    6.94533853456212   15.38653677178245
H         7.77493012418859    5.37014249099873   16.07598309765338
C         8.47773907764843    5.40452527566345   11.51584236997253
H         7.40701877864803    5.29115636092333   11.29193581059319
C         8.84171954718687    6.87198468144726   11.30023179744801
H         9.91659071567991    7.01248809525482   11.42848505928764
H         8.32586327889828    7.51374471067552   12.01792453968599
C         8.46493076689349    7.28391342776898    9.87714826935627
H         7.38667453866756    7.17328091098607    9.73905256401018
H         8.71558746758463    8.33523420097539    9.71822313796234
C         9.19907302680330    6.41763126690440    8.85711826108206
H        10.27469788624853    6.58660036331970    8.94920920679469
H         8.90295588728655    6.70310797195547    7.84543732601095
C         8.90024307140832    4.93891810004090    9.09114991279716
H         9.46661866764964    4.32975291639959    8.38295304525572
H         7.83707934096966    4.75332019593881    8.91950630715830
C         9.25643871604865    4.54645720039182   10.52176449995695
H        10.32842020632486    4.68404694313094   10.67514951064422
H         9.03368688430080    3.48999966865334   10.69797360769298
C        10.08829205701056    5.70351185481121   13.93658723011335
H        10.09702425964559    6.75294912846548   13.64032135233860
H        10.01354335858776    5.63698307980954   15.02362990076391
C        11.34338216011809    4.95715436366144   13.49590100337352
H        11.59660842531123    5.21945236642936   12.45693952232921
H        12.20288033012029    5.23418240191670   14.12495700620465
C        12.10572854281798    2.64686731965337   13.62396572736998
C        13.34198972613489    2.87372939423189   13.00351607485390
H        13.53812117922856    3.82176750931296   12.52437298130440
C        14.30908341810243    1.88757597114750   12.98775261227771
H        15.25578140706661    2.08257707864762   12.50376649575148
C        14.07779530612410    0.65659109386369   13.57868926002457
H        14.83996330613792   -0.10798029982965   13.55997654858853
C        12.86637180279558    0.42389948029548   14.21541393740993
H        12.68991213018129   -0.52388532984359   14.70491426060065
C        11.89747105120431    1.40326791080613   14.25455311008396
H        10.97206019166270    1.25041687875644   14.80544699667929

