21
CSD_code = CAWNIY | q = 0 | S = 0 | Stoichiometry = C5H10Cl2N2OPd | MND = 4
Pd        0.41946518296187   -0.22924155903960    5.30712304558436
Cl        2.07024977172954   -0.90503927187633    6.60599354139422
Cl       -0.64737684924802    0.49385335852490    7.09967402771015
O        -0.35533625481910   -0.17703882855979    2.49464944991656
N        -0.92916646749690    0.26503827330121    3.72743810187945
N         1.41590380363679   -0.90847184426957    3.70204154880494
H         2.32620451714781   -1.35968820878377    3.73504941345538
C        -2.06791482905829    0.82898366379120    3.56485030375094
C        -2.80360363456059    1.34951190775905    4.73837655111517
H        -2.22506696453030    1.22757062980986    5.65681494585396
H        -3.74810322926309    0.81536169751988    4.83571186944263
H        -3.03435699719294    2.40222591402131    4.58197561777363
C        -2.68701172605526    0.98422090846247    2.21320730124462
H        -2.05322891363607    1.61069271752462    1.58523051925558
H        -3.67202911417916    1.43303723732062    2.28894567353305
H        -2.76536877806125    0.01466009534074    1.72185986725177
C         0.84441091498157   -0.76710599323424    2.57472219567287
C         1.35942894958867   -1.19948557127303    1.23854247590563
H         2.36239773089850   -1.60464192881811    1.33248307141702
H         1.36946329550321   -0.35255592168455    0.55540423272222
H         0.70063959165289   -1.95838727583597    0.81970624631543

