24
CSD_code = CAWNOE | q = 0 | S = 0 | Stoichiometry = C6H12Cl2N2OPd | MND = 4
Pd        0.64442859341206    0.44079691685938    7.81936600250475
Cl        0.93951680107364    0.31126223772577   10.00265156316759
Cl        0.90841833587552    2.63090676066007    7.94408792541743
O         0.11357810788311   -1.27349281464391    5.52092755249557
N         0.31304626780200    0.12680671260244    5.73557054394375
N         0.40587366683188   -1.54749199230762    7.75008679855187
H         0.44859403880121   -2.16306123139390    8.55769382819540
C         0.24968159684550    0.80352742707056    4.64987338597362
C         0.43142462845257    2.27167120645124    4.68661964238822
H         0.61595592960510    2.62441824183654    5.70379575927151
H        -0.46075025779488    2.75437561733279    4.28975201690552
H         1.26844689875510    2.54706559194550    4.04634785491802
C        -0.00528906130056    0.15293189749420    3.32829644015743
H        -0.95701629801771   -0.37769247092394    3.35137636620688
H         0.76788307741344   -0.58697205913653    3.12167922230781
H        -0.02205640487974    0.88919732036241    2.53160198901798
C         0.17574790455607   -2.05574036267150    6.60840004721711
C        -0.05442334580274   -3.50333277100707    6.27222743938717
H         0.66350440387685   -3.78532228794623    5.49785794095121
H        -1.05096617497407   -3.58911291707898    5.83073158739924
C         0.07239639591588   -4.42586862500234    7.47738489484802
H        -0.09472708324172   -5.45361200128453    7.16710635576117
H        -0.66579835672745   -4.17898424443580    8.23721936019665
H         1.06683033563975   -4.36167615250808    7.91344548281635

