124
CSD_code = CAWSUQ | q = 1 | S = 0 | Stoichiometry = C59H55BFeN7O(1+) | MND = 5
Fe        4.48754084492292    3.59455807539039    5.95072739472968
O         3.78955329313889    4.76625849737335    7.35221544145700
N         5.53887580953035    4.92031919035868    5.03051021668149
N         6.82988161003422    4.73399365690356    4.74972551996529
N         6.02475452153648    3.06359683623247    7.10453513765172
N         7.25086188781845    3.13396167241176    6.56427731026676
N         5.19243952997757    2.31552055872668    4.62016605086196
N         6.51207604587221    2.32455104209216    4.37765419102806
N         3.25502650654470    2.45362550573324    6.61266332279599
H         3.10838541158338    1.46247578981133    6.43751476934344
C         7.31750246485738    5.78721879970057    4.06915917639747
C         6.27300083506900    6.68994254122608    3.89640809787586
H         6.31692991139987    7.63174553859674    3.39028730503250
C         5.16532329770592    6.10485744659592    4.51480336414643
C         8.18957167281473    3.01485928479422    7.52172265317028
C         7.53066136180300    2.86947134459441    8.73268084614019
H         7.96786087774989    2.72658822655060    9.69912223530459
C         6.16789652586512    2.88458254371207    8.42120412449527
C         6.85771602367886    1.24463018430207    3.65275603597582
C         5.70536872254798    0.50165187843208    3.43123940193836
H         5.61531751664666   -0.40336358588738    2.86717867781116
C         4.67858770767054    1.21888278932811    4.04689183309004
C         8.69881851612962    5.88216621370750    3.60963739699834
C         9.76135280332720    5.59184785979366    4.46276950190167
H         9.56771250501875    5.33116873512377    5.49155202450520
C        11.06130360149942    5.65549708574685    3.99792167450755
H        11.87627775519060    5.42307718685862    4.66632605135066
C        11.31554447964180    6.01493093353258    2.68427087259463
H        12.33132517186956    6.05984720398188    2.32246637809265
C        10.26450515974264    6.32678157135526    1.83731196910863
H        10.45975865194317    6.61639018279624    0.81594614273388
C         8.96176228262018    6.26498776895610    2.29608689353263
H         8.14050279386597    6.49513245544269    1.63340766061916
C         3.78476735421672    6.55348636360075    4.55621254343603
C         3.44819851360772    7.90156723121987    4.43657448143750
H         4.22979459008366    8.63955755727263    4.34720591272069
C         2.12228109559049    8.29132081184797    4.44969976292444
H         1.87101641178262    9.33644230914583    4.35600428481983
C         1.11519877172061    7.34929903849394    4.58739057400464
H         0.08139798169395    7.65839400370578    4.59356496769721
C         1.43705749781225    6.00602491809163    4.70932941735615
H         0.65658465110731    5.26663024177466    4.81299034895546
C         2.76043064725666    5.61523132235916    4.68166441033411
H         3.01844437708591    4.55029210052063    4.71623615082437
C         9.62865252635418    3.04082065735218    7.25949682874264
C        10.21338835618113    2.14693232251824    6.36619803781860
H         9.60465160880151    1.40259175716300    5.87584305625746
C        11.57176236178989    2.20387563329117    6.11700758062611
H        12.01432092857752    1.50980921259391    5.41876276930175
C        12.36001672199221    3.14424197842025    6.76032268387267
H        13.42011756205948    3.18815246196901    6.56184257912218
C        11.78796522310097    4.02114775128804    7.66693740624626
H        12.40043635298133    4.74878196682379    8.17766364010028
C        10.42898003882024    3.96934972228378    7.91927676206344
H         9.97833432911862    4.65709320387675    8.61970824147755
C         5.07303495834236    2.62532338011098    9.35753062997993
C         4.91760067270833    3.40368641950196   10.49895039357956
H         5.58999109306623    4.22955734747316   10.67430196955481
C         3.90706547335931    3.12119572752077   11.40000155585751
H         3.79308293002673    3.72546814367720   12.28760924265949
C         3.05148251015570    2.05582004497431   11.17748815065229
H         2.26751042259693    1.83722637794277   11.88633059900064
C         3.22632063626911    1.25314745720132   10.06307469529727
H         2.58457767955333    0.39877990939448    9.90621749258138
C         4.23799808990472    1.52935230408626    9.16191776574645
H         4.41244970626437    0.88014967130633    8.31647984521137
C         8.22423188014194    0.96038064089257    3.22069608591087
C         8.98315003201485    1.91700758821757    2.55063643039836
H         8.54848324673241    2.87592173538192    2.31212669526728
C        10.28489535005347    1.63544329155259    2.18143817057914
H        10.86717844866033    2.38536644030442    1.66794951774327
C        10.83946283218473    0.39860794497865    2.46855164226170
H        11.85752531824277    0.18286365923942    2.18242920414256
C        10.08254182622762   -0.56480449170356    3.11425700798628
H        10.50801371330908   -1.53288476539539    3.33108586666662
C         8.77956357387235   -0.28851744166528    3.48643545383535
H         8.19083326890753   -1.03424002717455    4.00021889527322
C         3.25366947219290    0.90214174295578    4.08389886647176
C         2.82248026346903   -0.37784276376994    4.42619046521761
H         3.55154101832166   -1.14392488960760    4.64415916694049
C         1.47009334374886   -0.65905299985482    4.50027580046011
H         1.14257132703097   -1.65176702247076    4.76922546513088
C         0.53601801102904    0.32841211324821    4.22894082119748
H        -0.51819762552511    0.10511964599924    4.28848268275156
C         0.95763391448704    1.59596636171951    3.86067051228121
H         0.23177382236543    2.35855884261003    3.62105818608682
C         2.30829036766042    1.88163295753536    3.78476134978983
H         2.64510878915683    2.85321589636566    3.45239535290006
C         2.66506085350587    4.35352703970134    7.77879125748365
C         2.29840298028681    3.01638114728781    7.33859558646857
C         1.10158360328005    2.40436620656825    7.75772445353128
H         0.88134730065906    1.41985926612208    7.37737002343646
C         0.27088510845104    3.07011969412058    8.61480606930165
C         0.64953931193109    4.36975401955986    9.05733015807053
H        -0.02430991056196    4.86364448390181    9.73562358571366
C         1.78779599983333    5.03149984025257    8.68233957476891
C        -1.03476314262993    2.48697303327377    9.12045811921476
C        -2.18969567070231    3.42563591086829    8.74075297387243
H        -2.22479565253334    3.56457421102769    7.66241096354745
H        -2.09010589836930    4.40010303590812    9.20935649003872
H        -3.13408888547342    2.99377099276710    9.06189465697873
C        -0.95557982330396    2.34552427988079   10.64718032980992
H        -1.88590899772602    1.93137323694905   11.02741554143218
H        -0.78708991194516    3.30278513853961   11.13177369227747
H        -0.14289986513483    1.67601861835745   10.91857138145271
C        -1.32463626577013    1.10727110236670    8.52380024198816
H        -0.55304037881757    0.39147122208032    8.79636884065794
H        -1.40076089027930    1.15676502535268    7.44008190983716
H        -2.27173437018934    0.73911253278016    8.91013233168704
C         2.12792300756997    6.43595048750798    9.15409079962997
C         3.47872277434700    6.41250881248349    9.87876618408304
H         3.41498947187581    5.79444885567831   10.77013343057587
H         3.75515084316316    7.42179934610118   10.17388016380723
H         4.25259963805696    6.01545636215429    9.22889564955968
C         2.22696871545223    7.35512517606648    7.92979559320901
H         3.01417762237516    7.01891012929472    7.26201791047890
H         2.45456462518253    8.36979742227676    8.24649707717758
H         1.28608797114665    7.36757428469676    7.38414595008252
C         1.07594106458782    7.00754359671934   10.10740896607395
H         0.10598283773653    7.09119489089542    9.62282601976534
H         1.38023876834978    8.00481725043491   10.41530537525525
H         0.98217343372232    6.39758188783061   11.00271836783053
B         7.41985987137430    3.35823398519255    5.06166900188413
H         8.53474349265853    3.26581865258504    4.71571323734227

