64
CSD_code = CAWSAU | q = 0 | S = 0 | Stoichiometry = C24H26BMoN7O4S | MND = 6
Mo        3.36389414641679    1.65832207809915    6.57929956807141
S         6.62666380342962    2.95666356659659    7.10947663267034
C         3.40795628928975    2.87788039496126    5.06494023512872
O         3.56449978320007    3.63111983875989    4.20486960631522
C         4.35656699734789    0.30594929861503    5.59466013783449
O         5.06049392018726   -0.42081604472826    5.03995632111876
C         5.07919459221360    2.35560033477123    6.91512358387771
C         7.44167656591745    2.89552157398044    5.53871330316873
C         6.81413072549256    2.44871763885991    4.38068279225515
C         7.51422865068917    2.43181216297505    3.19467418357020
C         8.83902430107524    2.86085758744028    3.16873695936884
C         9.46830972497066    3.30973721275239    4.32877390603224
C         8.76802776447861    3.32699612411367    5.51259729620925
N         9.56568818420734    2.84175279389942    1.93487379236814
O        10.72379147808112    3.21320573547422    1.95317817329462
O         8.98479799259090    2.45572630698956    0.93904449386545
B         0.66897152431400    1.02847611448318    8.34624369948115
N         3.08007445583174    0.37758004202257    8.27777080705081
N         1.87870035583382    0.24042416998110    8.86444859761220
C         1.96500319797870   -0.60591382996353    9.90843051256121
C         3.28079853359418   -1.02138646670909    9.99415205042292
C         3.94739180830590   -0.37774005445613    8.94858068457421
C         0.81621309785220   -0.98431829526909   10.77143644547779
C         5.38895907510126   -0.46822953362369    8.60220514911342
N         1.45491153534995    0.83131356853878    5.97967766211169
N         0.46610247005660    0.65298769986201    6.87195161015423
C        -0.61803175348347    0.13415609909141    6.26675378286841
C        -0.30693113352289   -0.02593905576400    4.92826045671227
C         1.00739330705323    0.42529590058837    4.79183097564343
C        -1.88947602385913   -0.18693406622218    6.96485822403028
C         1.81954118156097    0.46607838393106    3.54657561736172
N         2.12407364456226    2.96715921125149    7.74076805238991
N         1.04303423920685    2.51543416430637    8.39919892598044
C         0.44866725477497    3.52438565658532    9.06423873464241
C         1.18701149890890    4.66812351213181    8.82314755038681
C         2.23222374381755    4.27153149707439    7.98527298091121
C        -0.77651347830841    3.37009754632376    9.89053077576808
C         3.32339459474170    5.11660481407254    7.43617306616451
H        -0.29666040848112    0.80394183780236    8.98252395301461
H         5.78585845246032    2.11979638840018    4.41965494110678
H         7.05249630258683    2.09065211654260    2.28107527124891
H        10.49548450368361    3.63649938763698    4.27810139754358
H         9.23343314855054    3.67042698777130    6.42345015303477
H         3.70054552143241   -1.69629124858839   10.71191431896764
H         1.14923486490648   -1.69053485001367   11.52700585603911
H         0.02551703084193   -1.44582323104816   10.18233621942172
H         0.40070769519173   -0.10874924275383   11.26760364752950
H         5.91528315158214   -1.03593613634144    9.36510049709141
H         5.82287165332661    0.53039480693352    8.53534174738903
H         5.52710650364115   -0.96359219464531    7.64143151493072
H        -0.94210488938043   -0.41451727366128    4.15860558437763
H        -2.60133778598865   -0.59207048463462    6.25092185808688
H        -2.31632424575618    0.70519779462165    7.41993994030974
H        -1.72343611805556   -0.92094130371929    7.75154647751048
H         1.23025884257918    0.08514392098996    2.71615368988377
H         2.71625230002991   -0.14584087070076    3.64767819152527
H         2.12730905524045    1.48641669450230    3.31677644113401
H         0.99643056713457    5.65237189476246    9.19969484799221
H        -1.05601717919231    4.33449262503187   10.30567363621528
H        -0.60538824174335    2.67175309670255   10.70814095073879
H        -1.60274575330476    2.99218551082706    9.29075256585994
H         3.28724016117187    6.10393727508347    7.88912731377465
H         3.22376561549442    5.22507237366203    6.35637400164896
H         4.29276120279531    4.66138044302474    7.64416763705172

