38
CSD_code = CAWTAV | q = 0 | S = 0 | Stoichiometry = C13H15F3FeO5S | MND = 8
Fe        0.37291952477361    2.71578371779901    1.29896442974069
S        -1.40880749760589    3.72849809327896   -0.88878358342034
F        -2.51784787399813    6.14140954081920   -0.26655230243517
F        -0.76492501655192    5.57016272667255    0.85716046406820
F        -0.56407959363791    6.24692285544867   -1.17390273512979
O        -1.16809659986456    0.29459854203573    1.05954098595306
O        -1.99772253250812    3.35941928897690    2.80094664653929
O        -0.00133374538330    3.37078038739778   -0.64101583392958
O        -2.28073047024783    3.11529514149229    0.08138680185659
O        -1.79445737546047    3.72517521694805   -2.25786296435199
C         1.66828635243664    2.49461848277539    2.97645395439890
C         1.66378233706779    3.89921719689310    2.65928913182065
C         2.14899785003972    4.03535950268916    1.35079657598023
C         2.52920793846981    2.72182487903241    0.86528246291398
C         2.29586331951081    1.79023885937464    1.88865512451066
C         1.37480012872736    1.91635744031461    4.32347993677278
C         1.26478233955769    5.00049693900821    3.58616538419412
C         2.38707321401758    5.29149073634014    0.58691896259448
C         3.17242165280387    2.49519686801381   -0.46007275939666
C         2.66207103685273    0.34092920471337    1.89273236106791
C        -0.53545051002819    1.24045053163895    1.13303079938923
C        -1.13439767236838    3.14602389017984    2.08786631112479
C        -1.34312365995592    5.53177669024978   -0.36134650431567
H         0.56271228546788    2.45257431878808    4.80633290747683
H         1.09632585938127    0.86924596337157    4.24478455902052
H         2.25796232587770    1.98898746797746    4.95995033428976
H         0.83564983326622    5.83080466587133    3.03387178954926
H         0.52870211191029    4.65409785152778    4.30539974866408
H         2.13652006912390    5.36084316102145    4.13424063620652
H         1.96945782532298    5.20196374428459   -0.41429600306400
H         1.93199192051877    6.14461449251004    1.08089644939783
H         3.45859142862221    5.47376156305084    0.49151187662068
H         3.37082032735129    1.44087742286718   -0.62762559868204
H         2.51134346864908    2.85443286416516   -1.24656220805971
H         4.11212296164446    3.04410876730190   -0.52545235137840
H         1.93179870156243   -0.24423073251563    2.44460206255151
H         2.71723151283402   -0.04878055632978    0.88086186500152
H         3.63513622181826    0.20707227401384    2.36785028245916

