66
CSD_code = CAWTEA | q = 0 | S = 0 | Stoichiometry = C21H33N7O4Pd | MND = 4
Pd       11.06911892113042    2.63330348721509    8.02042864794336
N         5.85476983268881    2.86950135418755    5.82529586751149
C         4.97787234598068    3.99594004940299    5.60885700588670
H         5.08327530528588    4.72145287602336    6.41807579555303
H         3.93780125259250    3.66565454640601    5.55952443350028
H         5.24935393880805    4.46282606303986    4.66398065173438
C         5.71487989695552    2.13575379984663    7.06609244817943
H         4.78392167449207    2.43645893615653    7.54019672115539
H         6.54780363983549    2.34640234161097    7.74451355829298
H         5.67751658666441    1.06281174878537    6.87026981030876
C         6.78896726889627    2.57889100172983    4.90161183442758
O         6.88417231429905    3.13586611598263    3.82483515623046
N         7.65921103590699    1.53708118934461    5.28874732511545
H         8.00614719570193    1.62207083420119    6.24349301575158
C         8.53085071009780    0.92294642394655    4.40323545551963
N         8.05612783990396    0.50144847900258    3.22514104374888
C         8.96513515076586    0.02783557428253    2.21007281944211
H         9.98448756730788    0.13201991733502    2.57145196236547
H         8.83522734052893    0.61266354050686    1.29712640556950
H         8.77145171786617   -1.02400639797778    1.98779601612912
C         6.65794684620486    0.47482263510226    2.87706756319678
H         6.04730318795408    0.38420668909848    3.77393355395450
H         6.47669656535449   -0.39042471230275    2.23852392406836
H         6.36378135434634    1.38381577696004    2.34600292665072
N         9.73992039796374    0.59310375413122    4.75337128270700
C        10.40430548153372    1.15562907114287    5.78329249391592
N        10.56918293945852    2.42796516261621    6.00882494267339
C        10.12407400450694    3.45814491029392    5.11057001460051
H         9.16826498246964    3.87349545712507    5.45674043330086
H         9.97046714204260    3.06337880079239    4.09618711487601
C        11.17421442486944    4.57284859866185    5.11065512533781
H        12.09494794433722    4.19278132081834    4.66066525965045
H        11.38732839141532    4.83281891419577    6.15712482102754
C        10.69175360365151    5.80201568060344    4.35396848690347
H        10.45258375306973    5.54835223179108    3.32314141687273
H        11.45965980710541    6.57129252223459    4.35153434282996
H         9.79853538543972    6.20999199069414    4.82136870308001
C        11.09317475767909    0.25181063519206    6.72481581683985
N        11.59509877564079    0.88376762599370    7.78868921275075
C        11.19737480273685   -1.13004348961702    6.61221612117761
H        10.78942675121697   -1.62451137588767    5.74544702481781
C        11.82153642621116   -1.83077152352394    7.63607169594004
H        11.93295083364550   -2.90229688165256    7.56599193463972
C        12.26211766601238   -1.15540429485452    8.76661455292454
H        12.70411934390743   -1.66414500298383    9.60829021552991
C        12.10777616959249    0.22465440139156    8.82117123745799
C        12.44528873892258    1.11115917967928    9.99525487860801
O        13.11983576279063    0.69952957219490   10.93694425140812
N        11.90731626065732    2.32653470901765    9.85432001239372
C        12.28927675970468    3.33748865594256   10.81670118942023
H        13.12421252745288    2.93802283063888   11.40727400979261
H        11.45123200964302    3.54401200050874   11.49621929594098
C        12.70782686751610    4.63925052232455   10.11967041444050
H        13.11017730266839    5.31584762734971   10.87674563001648
H        11.82533556332211    5.10339531805847    9.67297782200524
C        13.75025562706225    4.39820280321312    9.02761607574089
H        14.59110331280219    3.83052029787757    9.42224256512732
H        14.11740590592033    5.34617161765120    8.64057709892485
H        13.29890794133443    3.83268268041462    8.19116700303155
O        10.11125646708645    4.41363701133994    8.30070297152661
C         8.90702927827500    4.06314747387526    8.21419175882837
O         8.54197277206166    2.88071450013832    8.03657400364608
C         7.85448190221582    5.16129581640448    8.29527248821124
H         7.03349523755273    4.84224072662380    8.93202904332581
H         7.46709442662608    5.35328896883890    7.29576726071786
H         8.30096206246857    6.07103690891898    8.68482603494204

