87
CSD_code = CAWXUU | q = 0 | S = 0 | Stoichiometry = C48H31N4O3Re | MND = 6
Re        2.94131167672195    4.02074037563820    9.82699530835243
O         4.78370849081073    5.77363877691377    8.07370261221595
O         2.99971183592283    1.65022230251018    7.84751417717514
O         0.46005071759075    5.17397132084558    8.37804534015199
N         0.52010477497180    4.96850870820006   11.74113982979528
N         3.38919310570604    5.88895740812621   11.27678189553084
N         4.57861485621890    3.24570296263103   10.98604041013981
N         1.82676451363989    2.29416686350358   11.07977328978379
C        -0.54213008263294    4.23883192034405   11.26240642575372
C        -1.46217871229112    5.14328079495294   10.66594500763582
C        -0.91927521762265    6.39219934607791   10.73251122573822
C         0.34547985082267    6.28117486545479   11.37158108004143
C         1.32168637568512    7.27020908695839   11.46269075106606
C         2.70505193261214    7.02327772493131   11.57547100812889
C         3.61631629141606    8.04751159065545   12.00968684470978
C         4.85875222969202    7.51655223364878   11.95955034572943
C         4.71350290950605    6.16943908183454   11.48321198505157
C         5.81257948490067    5.30907695310678   11.36897288947714
C         5.73533796672883    3.92339965035751   11.19911374150841
C         6.81868547566400    2.99157429907802   11.35154162155965
C         6.27893891944829    1.74972837452498   11.28141089603786
C         4.86580221987300    1.92272516753623   11.08618482883483
C         3.90117164004688    0.91130246254899   11.12155110674775
C         2.51859464102358    1.11889921042533   11.20266031407263
C         1.61702903031376    0.05507149195421   11.54626862425088
C         0.37940702989211    0.59666804391385   11.60129528595607
C         0.52065156305544    1.99620487649717   11.30211873151218
C        -0.60003234212061    2.84783836444304   11.22514533729442
C         1.29511614820753    4.56964445672790   12.89328014936371
C         0.87657694328642    8.66457276712335   11.33884304424279
C        -0.22080230898934    9.12157433926365   12.06812145922017
C        -0.64757129539614   10.43049099056711   11.94874854519025
C         0.00846248823709   11.30150000635804   11.09427669008094
C         1.09333921672482   10.85482243316209   10.35719712598293
C         1.52606093241438    9.54805142977792   10.47708308085618
C         7.15508074730752    5.90752384949111   11.53206408969486
C         7.93918202759590    5.63366550736821   12.64744918119814
C         9.19440288403854    6.20105915776294   12.77399142360716
C         9.68055235083764    7.04181659961703   11.78692417720313
C         8.90365619385459    7.31954797474209   10.67446367268098
C         7.64537014775585    6.76011006958613   10.54788693361199
C         4.37482856220279   -0.48897826897366   11.16764169673138
C         5.06144067286489   -0.98590541719920   12.27006698019468
C         5.49908756854560   -2.29809095130208   12.28561525043688
C         5.26088718495907   -3.12385559571596   11.19984525436774
C         4.57652484127731   -2.63487154145966   10.09945095235606
C         4.13076429206621   -1.32595570255726   10.08328940269233
C        -1.91690476549519    2.23871735953775   10.99545445742594
C        -2.08696456808654    1.24617215197252   10.03066232611213
C        -3.33187922207615    0.68778105747940    9.81224046612009
C        -4.42533728768041    1.10841635224868   10.55194267261312
C        -4.26852586778992    2.09790102928933   11.50875908679966
C        -3.02613310200042    2.66223704187634   11.72699725956191
C         4.08170984143438    5.13610002596655    8.72132221362405
C         2.95479147890082    2.53459377103834    8.57865908498041
C         1.36833647548338    4.75032973643623    8.94545086096770
H        -2.37031004783352    4.85236112148811   10.17616567961391
H        -1.30819322927511    7.29566880168015   10.30624650400340
H         3.32469981641623    9.01963412491277   12.35704717641323
H         5.78821710012270    7.97389687212484   12.23710654354884
H         7.84714324342283    3.25650085115985   11.50034123719941
H         6.78187036933075    0.80602066486035   11.36228107186169
H         1.90774014632150   -0.95885225891421   11.74012243513170
H        -0.54202445166766    0.11780802783090   11.87033135846708
H         1.45257552479597    5.43913702042738   13.53360970108037
H         2.27239303057543    4.15893008651993   12.62822624194867
H         0.74314084054024    3.80755549758458   13.44590208265367
H        -0.72644205000524    8.44641824205993   12.74385945675514
H        -1.49401781856157   10.77392458840739   12.52546702775327
H        -0.32666652966663   12.32375740713283   11.00084075825410
H         1.60156063647980   11.52768788223401    9.68229807071000
H         2.35810986590171    9.19351015069785    9.88670063870304
H         7.55420609551451    4.98607275023242   13.42273163910463
H         9.79437178723800    5.98649002844383   13.64650208873463
H        10.66204262227880    7.48133006959532   11.88604796718977
H         9.27850826539840    7.97570979557267    9.90278940041865
H         7.03638294445451    6.97159428137473    9.68097355777726
H         5.23736367408025   -0.34351825800723   13.12155677679402
H         6.02712994648147   -2.67705488608687   13.14864130039667
H         5.60616195239782   -4.14705507953177   11.21261957993700
H         4.38782052306010   -3.27575294307128    9.25083789755709
H         3.59853599968527   -0.93886588120014    9.22655257083100
H        -1.23866572389099    0.93403066550048    9.43946639070227
H        -3.45156199130641   -0.07616721434638    9.05818923393325
H        -5.39690522358233    0.66913924561956   10.38122273541640
H        -5.11799500278235    2.42930051215375   12.08806667952779
H        -2.90307607399306    3.42604294576103   12.48171774542044

