72
CSD_code = CAWYOP | q = 0 | S = 0 | Stoichiometry = C28H38N2O2SiW | MND = 9
W         3.07687560828958    3.59537336788894   12.06361408507790
Si        1.26052171560030    1.76931309524176   12.08917720359123
N         4.72093105743496    4.35055332186494   10.69838326852515
N         7.76940958571331    5.79273347092072    8.21269355099260
O         4.66447116127414    1.00453996654334   11.38035283472263
O         1.54635227923345    3.77111744281298    9.35568543375836
C         4.02778342965513    1.94620734054923   11.61468963156158
C         2.13728399735982    3.66360808150814   10.34819856028995
C        -0.54741346339458    2.41960819736527   11.88761183049190
H        -1.23490487164386    1.59335637699830   11.73610492330159
H        -0.61741346419523    3.06279836899372   11.01677947425190
H        -0.89866329030540    2.98513969365580   12.74342599296475
C         1.35286571532769    0.44758268028187   10.68388734599271
H         0.53273627272819   -0.26063106055541   10.75870823148201
H         2.27748431322073   -0.11691165789890   10.73042553413075
H         1.30216618020672    0.91512342827351    9.70605532363823
C         1.27450562655361    0.64256524294606   13.64151754158627
C         2.44845449953494    0.01189999116994   14.04208311086057
H         3.35460012735124    0.18653778311816   13.48226589723593
C         2.48139275602658   -0.83204977747406   15.13628087669998
H         3.41028944141312   -1.30765447265828   15.42248243358120
C         1.33310120238191   -1.07800203748540   15.87937079737882
C         0.15551330306038   -0.45712328222009   15.48684609842999
H        -0.75249484069809   -0.63496545984014   16.04811453242163
C         0.13059019025247    0.38435303303672   14.38866423315020
H        -0.80088284216625    0.85207115944402   14.10826592136496
C         1.36621997801342   -2.00812282781554   17.05529331431585
H         1.29701984425905   -3.04218163416278   16.71497215068862
H         0.53237859839550   -1.81668729969500   17.72716351375772
H         2.29760884169383   -1.90058707221856   17.60827762589463
C         4.48982865733492    5.26966663202853    9.75842768733965
H         3.47107395206367    5.61914310253220    9.66354482952728
C         5.45403487095226    5.77789488057145    8.92055023771870
H         5.16261668336634    6.51015607033448    8.18768453749967
C         6.78639458428304    5.33442994009367    9.02285087414567
C         7.02262449439216    4.38803139518250   10.03819276122846
H         8.00693309665669    3.98977811802331   10.21396987730123
C         5.98544735174654    3.94217172176269   10.82298431137158
H         6.18347560491403    3.20726073673900   11.59099296588407
C         7.46275264833379    6.71955262370184    7.14919053084325
H         6.74084834801640    6.29249982760125    6.44688614392451
H         8.37070645843409    6.95852216747208    6.60202733783685
H         7.05309114862298    7.65035855939294    7.55040834807605
C         9.10811194186741    5.26332261941865    8.32120478708628
H         9.52689744132656    5.46410817901710    9.31088703445077
H         9.74754475645004    5.73735790864394    7.58149768729079
H         9.12291995659292    4.18357791728157    8.14643923629144
C         1.99254558966937    5.29711358861313   13.30067106144363
C         3.31375371548305    5.69596067511244   13.01556441438152
C         4.21343512358667    4.78821673049255   13.69345847281174
C         3.43387341683510    3.84359814688886   14.39221776867174
C         2.04965735136423    4.14070052911475   14.14860026353299
C         0.74078356966747    6.04989933353599   12.95801491542123
H        -0.08138896726100    5.36667423059651   12.75388752919277
H         0.88522091521166    6.67550933114597   12.07885384253890
H         0.45005417876220    6.69640456298602   13.78995560350194
C         3.71949087397050    6.99552413998987   12.38514844879064
H         3.75805408559225    7.77853696035029   13.14714933121657
H         3.00640019473426    7.30829848018219   11.62322882764681
H         4.70534015512977    6.93259228616468   11.92434597019740
C         5.68432021312454    5.01605915806950   13.88432372070236
H         6.13730145653878    5.49511952804658   13.01612391017450
H         6.20766851187683    4.07898639688028   14.07096316073480
H         5.84884411275037    5.66698586323157   14.74726849652213
C         3.92936234227072    2.85723659297361   15.40691872436387
H         3.96830147218521    3.32570307758988   16.39380222415975
H         4.92974233240109    2.50416706489274   15.16146690202460
H         3.26875408024147    1.99425720975107   15.46536540382180
C         0.92914568055095    3.67539055998838   15.02776127128824
H         1.00798757303785    2.61628673661396   15.25842575039763
H        -0.03889387390835    3.85676844766641   14.56944430758220
H         0.96626094823147    4.23231250877950   15.96800921897131

