119
CSD_code = CAXFUE | q = 0 | S = 0 | Stoichiometry = C56H53I2N4O3Rh | MND = 6
C         0.86112459579588   10.45889417153142    3.21667327564538
C         1.51860145334725   11.39202148101869    4.23416601553178
C         1.70825896520226   10.58861622801165    5.50533119287231
C         0.66186632846110    9.80377994811621    5.97488101584768
H        -0.28015846422939    9.78795369365857    5.44671685675297
C         0.80223196887700    9.03319909089209    7.11328657931015
H        -0.02719487334158    8.41936716483979    7.43094442385406
C         1.98845702021513    9.04712542441487    7.83451217876114
C         3.03680948526358    9.82841056612518    7.35976793833486
H         3.98046317518482    9.83248806687028    7.88621142003708
C         2.89950719216426   10.59371954946146    6.21712900750079
H         3.73239441853053   11.19076325707043    5.87580045676987
C         0.60164641334028   12.58499284735236    4.41747644048585
C        -0.00083010859663   12.88240619950479    5.63147791249021
H         0.20532338273090   12.27693140312927    6.50153215070358
C        -0.86669662883988   13.95756470164910    5.74212253668488
H        -1.32540677613058   14.17502938198314    6.69581335424639
C        -1.14712918370516   14.74608653053472    4.64134121530666
H        -1.82855015094001   15.57986098672231    4.72794960021403
C        -0.54183186198931   14.46297638558337    3.42842979321623
H        -0.74590855496149   15.07885263685825    2.56406846554154
C         0.33055479482506   13.39669721598513    3.31880203588849
H         0.81308196256362   13.19637769920284    2.37363072369665
C         2.85948811483199   11.80239219985472    3.63991557132571
C         3.33263387898263   13.10234163209966    3.77853173258414
H         2.74711767734887   13.83544615716866    4.31401374365870
C         4.55435929607280   13.46647032601889    3.24088609461643
H         4.90454506552516   14.48210574036523    3.35687523385170
C         5.32268863645277   12.53961430369518    2.55826858948464
H         6.26974037952819   12.82934632253057    2.12739818807418
C         4.87227384629675   11.23672478415110    2.44048990894443
H         5.46543853684392   10.50097264597470    1.91816714540467
C         3.65605277465167   10.86925761991259    2.98698577541576
H         3.32951719880261    9.84349165513538    2.90588736773714
C        -0.06988350325900    7.05227592545782    1.05070254708735
C         0.19997088823313    4.88618711109565    0.70176445833157
H         0.56407045545640    3.89773115717852    0.89343135263873
C        -0.59434353934454    5.34465799641476   -0.29302429471447
H        -1.04440266129643    4.83066717924228   -1.11599625421951
C         1.31318893812792    5.87055567588749    2.71075375522640
H         2.28804350457642    5.43727890228433    2.48429375341969
H         0.81021631752141    5.25767856635378    3.46088745080505
H         1.45146876969965    6.87612303902236    3.11268697645841
C        -1.47267428834901    7.69449260514854   -0.68972085209320
C        -2.16783624284114    7.57034238767989   -1.86717145004064
H        -2.21396403439533    6.63689324244891   -2.40574297251659
C        -2.81452639055719    8.70944376529655   -2.36554627833430
C        -2.77869646789504    9.86577570513507   -1.62695236736317
H        -3.30276606835794   10.74978765933399   -1.95697319991277
C        -1.38832192761803    8.92402026094469    0.02564288487852
C        -2.07016604604395   11.21313869172713    0.24163950602613
H        -2.39227492163711   11.05739581049881    1.27423895761068
H        -2.73106941858073   11.93146810879188   -0.23699205275674
H        -1.05408427760756   11.61548304462318    0.27049199301289
C        -3.66851011883375    8.62523462800130   -3.61131088036548
N        -3.03027288774112    8.75432378445883   -4.78791805436369
C        -3.79493800603341    8.63089198595422   -6.03521668114138
H        -3.07800814775489    8.75784390337722   -6.84981295754959
C        -1.60104777220694    9.03330197419810   -4.87795703053756
H        -1.22595262712833    9.11036665323873   -3.85334597064419
C        -0.84967106779801    7.89018097675195   -5.56091375699205
H        -1.07122426510798    6.94581102675192   -5.06940936663428
H         0.21935739185755    8.07109778531902   -5.49247616629749
H        -1.11579880057730    7.80521129955235   -6.61094264010149
C        -4.42048136174418    7.24216240861943   -6.15476196389363
H        -3.65629639323122    6.47151596755059   -6.08040065919524
H        -4.91713765086250    7.14735600175090   -7.11651623061454
H        -5.15236222827191    7.09221159806376   -5.36699535411482
C        -4.85277159267351    9.72753332129331   -6.14491488540318
H        -5.58864683674289    9.61753594120969   -5.35440209465149
H        -5.35615739116021    9.65276002144022   -7.10497132221627
H        -4.39412490850238   10.71067475513880   -6.06813668635564
C        -1.33423982630329   10.37391993665059   -5.56339931892146
H        -1.59756508506330   10.34784272056803   -6.61717620088896
H        -0.27782824622223   10.61398494491074   -5.48143636510763
H        -1.90503459021098   11.16381273054366   -5.08097303922480
C         2.22578215329331    8.13764746261504    9.03227727425924
C         2.84005940190536    8.85140028622039   10.22841804735361
C         2.79657579649725   10.23118848545850   10.37395057923613
H         2.37494255872749   10.84589045106720    9.59252262132278
C        -0.08749434569012    8.45705559173045    9.95525921820156
H         0.01720047323265    9.50715304839343    9.72417468825107
C         0.94251969556314    7.57815107278562    9.63174583660484
C         0.80896595591995    6.24238142481835    9.98512569574647
H         1.60631814820852    5.54348627966733    9.77830223512511
C         4.49902414795373    7.04058354228163    8.66369958814951
H         4.95073224901808    7.75159371360951    9.33964765361056
C         3.13054320356560    7.07085537779448    8.43188876016720
C         2.59140149142342    6.16988408813097    7.51716498360679
H         1.53490493951086    6.20775958119223    7.29423278882102
C         3.39145575574191    5.23363063711549    6.89067885056264
H         2.95330212858271    4.53576272737231    6.19116979610319
C         4.75084702968286    5.19097257387380    7.15288133522056
H         5.37765723056929    4.45860694257974    6.66530461945342
C        -0.34331038374980    5.78885587304862   10.60510060970223
H        -0.43090444439955    4.74424957108339   10.86727958847811
C        -1.37438254899878    6.66431221078672   10.89252592332773
H        -2.27360322669545    6.30827441305654   11.37313175221759
C        -1.23898925866235    8.00427284097370   10.57002572440491
H        -2.03127863393587    8.70049618578910   10.80323502729973
C         3.35094664653839    8.08899521225426   11.27549276941275
H         3.35511273824399    7.01142530692916   11.19594234052015
C         3.84736702089116    8.69185080100459   12.41521337249851
H         4.24657066256078    8.08268163897335   13.21323008165737
C         3.82508530139329   10.07114561235208   12.53851203623808
H         4.21158149473853   10.54438036935533   13.42911943979905
C         3.29114514459826   10.83574397531752   11.51746269405795
H         3.25346419531388   11.91160291709659   11.60987930764509
C         5.30100214441494    6.10329792753144    8.03444645638904
H         6.36296397913533    6.09165414580617    8.23348161318047
I        -2.12128900338200    8.38040326662785    3.25036991019741
I         1.74757609089648    9.55253826282563   -0.19204314531627
N         0.51299877167935    5.94652660439931    1.51755461098355
N        -0.75572552794185    6.68704746336259   -0.06380893304043
N        -2.08599682090705    9.95677452554849   -0.47572051532620
O         1.18139656388201    9.24335710509487    3.18854925524545
O         0.01803916408280   10.88529148808327    2.39253187806223
O        -4.86212070341608    8.43523533693160   -3.47863946879555
Rh       -0.14889401051995    8.94003444166196    1.57247287103817

