50
CSD_code = CAXFIR | q = 1 | S = 0 | Stoichiometry = C19H21F5N3OPd(1+) | MND = 4
Pd        4.27491528890172    4.16334963887096    7.73521353607540
O         2.54356824367362    4.38857260561178    6.75269185144278
N         3.52385287329538    5.23261628673361    9.23385433027580
H         3.99858506871470    5.21339938604197   10.13637579036140
N         6.15820331027110    3.86134603967594    8.60686826324950
N         5.00274131858759    3.05128011116439    6.15149527778791
C         1.64586193983574    5.28751619426410    6.96682163191307
C         1.56427835386996    6.13220661380964    8.12209732298852
C         0.56190996906994    7.13300938152895    8.15845054243745
H         0.54387997888653    7.82394519853543    8.98743391468537
C        -0.36242949827738    7.26551927717896    7.16344584720047
H        -1.11148833719214    8.03827445123566    7.21503638529553
C        -0.33497870472925    6.38659609022974    6.07283219003143
H        -1.07792745156915    6.47510209169923    5.29525461327751
C         0.63949867725044    5.43467958264706    5.97741270020770
H         0.68530198647130    4.76693325952456    5.13054422835156
C         2.44828131381668    5.97025390873782    9.22727332166060
C         2.13369021924611    6.69288318517461   10.49568427896012
C         3.08865704386000    7.52610617776634   11.07575511673521
C         2.83877986873141    8.22097463938607   12.25362196146109
C         1.60856694330792    8.06621377653740   12.89152520775231
C         0.64950723362652    7.21202930632763   12.34708449254078
C         0.91698311510559    6.53644926834833   11.15901475927678
F         4.28248924102228    7.65842531027344   10.47811334030871
F         3.77061018627717    9.01433168122706   12.77112772841494
F         1.35801312294197    8.71711936360961   14.01717730883473
F        -0.51442185010093    7.04247227280146   12.96153832067789
F         0.00293119783606    5.70359388490115   10.66666936074190
C         6.74350635799437    5.04261576474963    9.25381153277893
H         6.21722081370509    5.27910292099021   10.17676798892369
H         6.67611285960180    5.90651624169553    8.58839770625449
H         7.79526602749698    4.86667263480132    9.50406939167171
C         6.04231593922668    2.77112373637696    9.58381905671739
H         7.02872187503412    2.47537803945717    9.95959371001772
H         5.56078506179721    1.89976151937457    9.13448249753089
H         5.43531260642926    3.09298514171297   10.43143135058872
C         7.03064567540817    3.46668049286975    7.48198246271339
H         7.95453500198696    3.00667945482162    7.85840394982042
H         7.30566553670100    4.37425341683527    6.93592783142561
C         6.31404517576777    2.50037219504417    6.53922986127718
H         6.93688923950264    2.31749348504370    5.65430152403403
H         6.16020339267918    1.54007082493979    7.03829338773455
C         5.13161775246343    3.97431807046878    5.01747033311171
H         5.51525240824843    3.45351607116244    4.13261357580534
H         5.80936860227078    4.79584654906696    5.26518179485209
H         4.15025432487384    4.39159632986830    4.78099400023673
C         4.07266703365157    1.97279239944752    5.80168605217010
H         4.45974426960336    1.37511749018697    4.96947760406258
H         3.11381305655565    2.40536533008181    5.51346810550375
H         3.91119633626111    1.32264290716986    6.66608265982158

