71
CSD_code = CAXJAP | q = 1 | S = 0 | Stoichiometry = C28H29CoN5O8(1+) | MND = 6
Co        8.42059183374867    6.93690336107699    2.65302890254378
O         3.46510209266893    7.40778652616031    3.32928500186281
O         3.59571565576418    6.45245459236516    5.35026633558885
O         6.37694889062569    1.93105349357028    4.06577773680965
O         7.93728564037675    2.60027047305535    5.51784651008394
O         5.56439474318445    4.64505765801330    5.83031978843871
H         4.68346357784814    4.91019434296980    6.13484193324429
O         4.58255481970353    3.94377886143173    3.87228510182002
H         4.77800375094232    2.99320024194433    3.96641510513998
O        10.64505890413089    8.66831219013279   -0.11796923840639
O         9.11094628755207    7.40159610585462    0.88947110043640
N         7.20733250935863    8.41234380698745    2.73609863566220
N         9.66129649162569    5.52620105219053    2.94351225919194
N         7.83802707064429    6.56175809405693    4.36407200532831
N         9.78173103893809    8.15081449404969    3.25564940725601
N         6.97047480230246    5.62622709187211    1.97457290945023
C         5.42760076139394    6.13532873424390    3.86589234042872
C         6.50643969227860    7.04756584013886    4.54241668127236
H         6.25738498283562    7.12053013459899    5.61113050689873
C         8.07004566852964    5.17729012560417    4.67376306689945
H         8.03800560206889    5.01293389213278    5.75868978669782
C         7.02375785707229    4.22714039598069    4.02241370137070
C         7.11645953182077    4.25538456694244    2.49359680180218
H         8.06676435745313    3.83278730834343    2.16120710405650
H         6.31204006976264    3.62454102419067    2.09056318526189
C         5.61781552397473    6.06419256647740    2.34604527840631
H         4.87865747290130    5.34930356842325    1.96050951713884
H         5.39565823253664    7.03315530905490    1.89744781826362
C         5.59389202178155    4.70633479698588    4.43826343493562
C         4.04684495173505    6.72187970682488    4.12709639871585
C         2.29721408721812    6.95261988425767    5.67779259893348
H         1.53410123968768    6.32101444572001    5.22210186017955
H         2.18283976648441    7.97189825858830    5.30743991667454
H         2.22106441357877    6.91987051759511    6.76137141978422
C         7.09392815713425    2.78946357492406    4.52389512678964
C         7.97009958998292    1.29159631905238    6.09345150084239
H         8.56600891740531    0.62651185551003    5.46681252620209
H         6.96010437285971    0.89041500505368    6.17896444847924
H         8.42445076087700    1.40115097345859    7.07427902520652
C         6.44927002256478    8.37318186959369    3.84280600203117
C         5.64688897999488    9.43562659777104    4.22086594788411
H         5.06769189217879    9.37597557176784    5.12821619357805
C         5.60316928922052   10.56296424038560    3.41643438007384
H         4.98323339705103   11.40398238947502    3.68395827009815
C         6.36282124119697   10.58240818429635    2.25675665031039
H         6.34319148979944   11.42929706810701    1.59068925773761
C         7.15977656144607    9.49180686840548    1.95845079970790
H         7.76454959648631    9.47539284787028    1.06245671372210
C         9.42530273674657    4.87534566656954    4.09500057841021
C        10.35827394328382    4.01256523559125    4.64525277788056
H        10.15227308597306    3.53837320389211    5.58982453686880
C        11.54319680946596    3.77676474193590    3.96562829794835
H        12.28643212297503    3.11069351113452    4.37508091252580
C        11.75227351164025    4.40926909011087    2.74962137857145
H        12.64816236721794    4.23820139366624    2.17565190024968
C        10.79173299735983    5.28733125671776    2.28115170155176
H        10.92638833446416    5.80735338847209    1.34293960067540
C         7.03610280282345    5.56089742145305    0.50727486944741
H         6.89019218363914    6.55189901553088    0.08579351192460
H         6.26548527777174    4.88810698806369    0.12052191086551
H         8.01454689694654    5.20499427132498    0.19455931259822
C        10.07056387919771    8.48448015698913    4.51095288027209
H         9.47199620549172    8.01341497997374    5.27793189350366
C        11.07832726393764    9.38216016702280    4.81626323946198
H        11.28060183016668    9.62554856503943    5.84692082720854
C        11.81456260231338    9.95697686395496    3.78843969391092
H        12.60433591958881   10.66018047399624    4.00276539948762
C        11.51052126086050    9.60577171331413    2.48480515946068
H        12.03329006129780   10.00502782593048    1.62935258911757
C        10.48670005144650    8.69878470344506    2.26195030286958
C        10.07253924467242    8.23986253835887    0.85836497036495

