53
CSD_code = CAXJIU | q = 0 | S = 0 | Stoichiometry = C26H21AsCl2N2Pd | MND = 4
Pd        2.66835568488410    4.27357358370300    3.36349303564662
Cl        2.09228653840413    2.76314485024063    4.90256546741542
As        4.90502900093323    3.93302125663637    3.89202806452155
C         6.18561821497294    2.52438723300344    4.26759361008217
C         6.22610332060849    1.99120552082162    5.55187526650797
C         7.07374908201393    0.93664401877419    5.83684719072620
C         7.87135430416602    0.39885305970537    4.83890180961188
C         7.80756619075901    0.90402295602654    3.55075014741069
C         6.95801032688111    1.95775200783348    3.26033295014877
C         5.66627083152942    5.06210923304109    2.49500507720587
C         7.00724198630807    5.23413120940802    2.26391237059067
C         7.48255106475736    6.06910144076089    1.23485141871952
C         6.57312416979569    6.71244873313291    0.43556640142076
C         4.23786843297495    7.19466883387263   -0.20138242824394
C         2.90617098943241    6.98751126841858    0.03154516069186
C         2.51571275790512    6.15671526889759    1.08998621961821
N         3.37272943500561    5.55341503165256    1.88756032570656
C         5.18570632424136    6.55718852547006    0.62641561656373
C         4.71268404889029    5.72442762030938    1.67736979378754
C         8.95811151356906    6.22729937054500    1.04409514409466
Cl        0.53449828428749    5.02167927664025    3.25654020034854
C         5.03887348583766    5.14438420062580    5.40687540510236
C         3.91579743672599    5.72889197964163    5.93197064754746
C         3.98928567420187    6.61471157916923    7.02989088990695
C         5.21304627181727    6.89100639293734    7.58538104162225
C         7.68317606032344    6.57224215908976    7.58336267801124
C         8.76687617191699    5.98080226551085    6.99035188653034
C         8.56314265593433    5.15072721550048    5.87532956816069
N         7.38645572001872    4.89348138945707    5.36952657450199
C         6.39501390538890    6.32354287532065    7.06700831947122
C         6.30748845923067    5.45035353725614    5.95129828048081
C         2.72161979797497    7.20574848499065    7.55622610951886
H         5.58453769238453    2.41416330373019    6.31996610143573
H         7.11041328008360    0.52730740910799    6.83596907579845
H         8.53392720560778   -0.42415410925633    5.06273079101113
H         8.41611984012362    0.47000291091788    2.77022771726559
H         6.88548892249930    2.34587999670261    2.24788560683875
H         7.71226748815937    4.72027434286464    2.90499589875142
H         6.90669452524005    7.35360628508807   -0.36804229642188
H         4.58035185048838    7.82992294797507   -1.00507327513705
H         2.14706160391091    7.44918839493308   -0.57913795470756
H         1.46367123291352    5.99547242607460    1.30519373902867
H         9.41077687904513    6.62558587586989    1.95102053384294
H         9.41723948406309    5.26074050304948    0.84211890632211
H         9.17748609237034    6.89883754761248    0.21844174617841
H         2.92710475971906    5.49677655620980    5.50934709498415
H         5.28993634667956    7.55627635727657    8.43429824120827
H         7.79701489317798    7.22460365490145    8.43784019145803
H         9.76695069580365    6.14476044440470    7.36088618776732
H         9.40576613334064    4.68053764510805    5.38368765286911
H         2.19823253423110    7.73731444818450    6.76274333372641
H         2.06150788528879    6.41277165756591    7.90524543051049
H         2.91393251317207    7.89183902333543    8.37678103383024

