23
CSD_code = CAXQUN | q = 0 | S = 0 | Stoichiometry = C6H6N6OPdS3 | MND = 4
Pd        8.14328529442536   10.44215426317187    1.09049672616335
S         6.60719136786478   12.26350429866666    1.18709261474424
S         9.38005891218799    8.40859433289332    0.62687323829889
S         8.29405506573169   10.38383488971357    3.40471079103942
C         7.65312835556256   13.57351789534725    1.17868059623063
N         7.24688679667802   14.73155960731089    1.75238776223644
H         6.33281245904805   14.75009761243674    2.19179401435087
N         7.99776480144978   15.81053498673662    1.93154027929684
C         9.20144414168719   15.82626450475684    1.48382001508230
C         9.76618545799149   14.69826357053679    0.73183897384190
O        10.85977284666750   14.63855370647978    0.22486645462297
N         8.87857905679998   13.61244220567909    0.58235221472942
N         9.41372425840999   12.45876380559265    0.00215912675715
H        10.42868091782973   12.60566801711125   -0.04521247355521
H         9.04430532763968   12.31839848720934   -0.94647179096279
C        10.06859338386047   17.00615626850220    1.71482671060055
H         9.49651208137593   17.80788887110955    2.16912788775505
H        10.51049301274319   17.33255435004980    0.77530392669816
H        10.88699987216745   16.71895409083072    2.37414052539740
C         8.64922162958926    9.26782105534642   -0.55383363400319
N         8.08080253905943   10.07497693237464   -1.19446561913859
C         9.11379376878857   11.79769837987076    3.19680054456350
N         9.62650865246978   12.83049786834949    3.08197111515188

