52
CSD_code = CAXQOH | q = 1 | S = 0 | Stoichiometry = C22H21ClN4OPPdS(1+) | MND = 4
Pd        7.36873093386592    5.17860035275064    4.76813208104045
Cl        5.83104583932183    6.36431930288233    3.68016845942531
S         8.88121819622015    4.00242628939939    6.11839782799343
O         5.51897232169418    5.92064206769148    9.21725809168661
N         7.06221798258195    5.02691654437742    7.83644554433641
N         6.36195163208750    5.56020362296433    6.73896686228907
H         6.25496134840319    6.58042150700819    6.84727854490063
H         5.40328907149651    5.18189915236940    6.70884190172573
N         8.80991189353024    3.82638408917229    8.73137476760465
H         9.66179635822098    3.28355207571817    8.63048723902324
N         8.39168777490179    4.00665086650219    9.97997392817730
C         8.20991103538319    4.30856335955671    7.61645311776246
C         6.52929765234927    5.27611932978934    9.12383106437744
C         7.32694199408133    4.68326936298497   10.21558245545400
C         6.86090699517401    4.89042482624305   11.60421573215481
H         7.54091250152259    4.41268384090937   12.30138628312880
H         5.85716344811158    4.48294733747903   11.72138915164634
H         6.79436635740995    5.95721885943619   11.81560925971335
P         8.22410010478927    5.01458961888837    2.71960677152452
C         7.17026048983383    3.98208303552503    1.67963165093770
C         6.10575237616192    3.32145270161136    2.28948047481606
H         5.90904716646779    3.48622329040137    3.35592411363112
C         5.30670286327032    2.47534178379672    1.54295168471876
H         4.47641858554797    1.96507348537189    2.00664277951952
C         5.57218407095757    2.28515679502828    0.19525908571257
H         4.94149773289856    1.63294613058797   -0.38874232168802
C         6.65004047865112    2.91881328678088   -0.40355119916671
H         6.86126950802254    2.75297366049075   -1.44880044498664
C         7.46144564099206    3.75973581954240    0.33693026426282
H         8.32211384662242    4.23138890167973   -0.11620959827464
C         9.82913141990370    4.16880896188090    2.68259627255914
C         9.84687530683289    2.84436955470538    3.11798519502815
H         8.92330749267581    2.38795135390495    3.45936550882613
C        11.03019189978395    2.13309008097045    3.10975322202960
H        11.04753095697136    1.10719247895750    3.44445608596474
C        12.19745014251721    2.74119069845470    2.66940221881647
H        13.12249472684102    2.18567120172534    2.66331444530279
C        12.18043614800786    4.05753536554198    2.23855707926838
H        13.09047020357273    4.52559557508184    1.89578224329648
C        10.99838518200837    4.77901883017174    2.24488930440783
H        10.98093096736535    5.80596953659207    1.90822494658485
C         8.52248379803488    6.69967123588577    2.14218970332977
C         8.96526505687389    7.56623345938284    3.14442488538098
H         9.08569940799218    7.18305221389753    4.16713710857920
C         9.22748271575444    8.88773158958661    2.84426706592535
H         9.56845711176064    9.56379671884638    3.61349769563874
C         9.03684043532927    9.34905129991481    1.54852076405039
H         9.23228196327108   10.38410744038684    1.31492638290088
C         8.58051026058187    8.49321536392467    0.56059653659204
H         8.41794298161969    8.86253002488945   -0.44022418470292
C         8.32037580444893    7.16278378429214    0.85037727968892
H         7.94433981720193    6.50151193423643    0.08464466710254

