51
CSD_code = CAXSEA | q = 0 | S = 0 | Stoichiometry = C16H30Cl2P2Pt | MND = 4
Pt       12.65028470721973    5.60615694400326    3.20868516596818
Cl       12.74866965485338    3.40240503319360    2.59322912390084
Cl       14.27376552889984    5.22811779385116    4.78167225184207
P        10.85162016239747    5.80127419940136    1.81930887064262
H        10.95210690861222    6.40964698554161    0.56072942181723
P        12.83377443257015    7.81338522730862    3.74491515420070
H        11.97101034066481    8.35891738554793    4.69832509600534
C         9.48499024632799    6.78080683384174    2.56168676391220
H         9.88783041443594    7.75199573641429    2.88425427670646
C         9.09482512016357    6.02487703139963    3.83878166733610
H         8.40258345824186    6.63099028052531    4.42937768123266
H        10.01977477648733    5.90658496956054    4.42637212394464
C         8.48473573224727    4.64173560860960    3.62362272718570
H         8.41365556759578    4.15201811533171    4.59829194480976
H         7.46510264716821    4.73765559843588    3.25436852582980
C         9.31346607784600    3.73823338670970    2.70942737517132
H         8.73542395021353    2.83910620554469    2.48311009661510
H        10.20850166434806    3.42382826159069    3.25577769569190
C         9.80637056974560    4.35812349290737    1.39559403072583
H        10.45412185506194    3.61185237216286    0.91822703354785
C         8.74103176871305    4.78540078270545    0.38020503232287
H         8.17839987778396    3.90080214974043    0.07054270022457
H         9.26044319262820    5.16568039794669   -0.50582540888645
C         7.74752158029756    5.84249614367122    0.86264455196318
H         7.18223977044282    6.19601067032027   -0.00439192242245
H         7.02344101035723    5.38637084774573    1.53354378470821
C         8.38757709654497    7.06143379418110    1.53062449913528
H         7.59789147665649    7.65014256907363    2.00630495069161
H         8.83396093294385    7.68837686629810    0.75144662064041
C        12.63331195852983    8.94703352694218    2.30564934447878
H        11.66279385461217    8.74480337816353    1.83532402960288
C        13.71746842992566    8.49303684170862    1.31408993417297
H        13.60062428659955    7.40962869743972    1.15543058419828
H        13.56432191518244    8.98964277425372    0.35206209957759
C        15.13689504636028    8.76287375859164    1.80367933643344
H        15.84095848791549    8.39611762509243    1.05393931856154
H        15.29944265251689    9.83832010445487    1.89600872155629
C        15.43250300738699    8.07299750110297    3.13137456462455
H        16.45604692871967    8.30085703563301    3.43780818183912
H        15.36334314657947    6.98768496065396    2.99371534750747
C        14.46704535899791    8.46867661802948    4.26022495991271
H        14.77309765401766    7.91959950441934    5.15685767333604
C        14.44458709392176    9.98485825202117    4.53935291922717
H        14.58847080056496   10.15546875165433    5.60809466950623
H        15.29032991556942   10.44760469460904    4.02742366519080
C        13.15642265860697   10.69782690856279    4.12499797895649
H        12.34800867014820   10.39821098596426    4.79673291081169
H        13.29591906959612   11.77342423789357    4.25733388890349
C        12.72902348502061   10.43733866654417    2.68011770180288
H        13.42813259236726   10.93097171887653    2.00293167367263
H        11.75573246551152   10.91009777383634    2.52989866055230

