95
CSD_code = CAXTON | q = 0 | S = 0 | Stoichiometry = C38H36FeN14O4S2 | MND = 6
Fe        0.00227624710900   -0.00076389803695    0.00065142573615
S         0.36264970799728   -1.04396031135972    4.48626572640787
O        -2.46778223996430    3.41040746867637    3.47409504557006
O         2.25850143938255    3.37451539283981    5.18432024948932
N         0.49142001527269   -0.47532219929264    1.78181434939681
N        -1.94622125225063    0.70293556871904    0.68116259397290
N        -4.21435406809486    2.33814712178808    4.41742878060630
H        -4.95495367377583    2.39584574559725    5.09859985890533
N        -6.48711543460822    4.88024977688756    4.78727646945204
N         0.77479120968656    1.83560891590034    0.27617422296884
N         0.32682268699354    3.56594945845247    4.03270296113618
H        -0.65461253656346    3.32863967206078    3.94291888843686
N        -2.04330209485340    2.82757484738882    6.48029068136324
C         0.45646664138170   -0.72090943666200    2.92844661404322
C        -2.31373640783458    0.65891329264614    1.95900040221924
H        -1.59642891025012    0.25471524743248    2.65713148495727
C        -3.54009437898758    1.09912275692970    2.43370479310816
C        -4.44428661325137    1.62476497934028    1.51822520682489
H        -5.40742924619721    1.99054093299558    1.84303387491093
C        -4.07078358595578    1.67609947348876    0.18681834524828
H        -4.73742039849171    2.07737251084167   -0.55985101999706
C        -2.82153967615885    1.20785714729773   -0.18501564831086
H        -2.50317032685562    1.23788118540500   -1.21514031681936
C        -3.86334130321938    1.02668488763749    3.90235460835653
H        -4.71927589271313    0.36731796823938    4.06356218104217
H        -3.00184436966181    0.62712298346876    4.45089181182836
C        -3.44536848438652    3.41388021360251    4.19780213245282
C        -3.92005404996998    4.67831542751932    4.91767570870381
H        -3.59822413523081    4.60125103696467    5.96109236988547
H        -3.44146050564699    5.54870336058365    4.46338873238931
C        -5.34764683063632    4.81063258663642    4.85690144662337
C         0.58822740304725    2.48745720159095    1.42505611748101
H         0.00076263371351    1.97429990294713    2.16915856448758
C         1.11034586003566    3.74216016011207    1.69790853405346
C         1.86562853256431    4.36434934971707    0.70824996623678
H         2.29185690265148    5.34164573752558    0.87743985397923
C         2.05835581458527    3.69867160129374   -0.48944946638154
H         2.63594566160926    4.14349020176213   -1.28436385074278
C         1.50271147153960    2.44367154993493   -0.66127469833768
H         1.63518317008141    1.91037527724183   -1.58942130869765
C         0.87552416632140    4.42992458138123    3.01913960024462
H         1.82992099736890    4.80947884145991    3.39995958871434
H         0.19709846727061    5.27640005013391    2.86360249181004
C         1.09362982672882    3.08542318088168    5.02972857520122
C         0.37303202157083    2.11074614345663    5.96971649727764
H         0.36423517084168    1.12024202018838    5.48562489640973
H         0.95020011222553    2.02698233519238    6.89372517721783
C        -0.96575601247865    2.50092851549675    6.26343873051385
S        -0.36476791218923    1.04605437959556   -4.48425137529239
O         2.46668229882557   -3.40955535199549   -3.47510068802720
O        -2.26170289829797   -3.36989717259504   -5.18005194757892
N        -0.48735869217161    0.47353885508912   -1.78036987010095
N         1.94939446061712   -0.70423134755496   -0.67973968293684
N         4.21463246961782   -2.33904614602414   -4.41777270788419
H         4.95426332233910   -2.39697022818711   -5.09997917672533
N         6.48305036633680   -4.88159220840028   -4.80050011545824
N        -0.77104614002774   -1.83671239800561   -0.27515153287579
N        -0.32777003387714   -3.56572557832665   -4.03290682165782
H         0.65392073651235   -3.32887563884888   -3.94450737714587
N         2.04081737131486   -2.82101791177418   -6.47902134491421
C        -0.45442356510652    0.72145701224947   -2.92653823678292
C         2.31688216154748   -0.65947640920954   -1.95759137294677
H         1.59997143917854   -0.25380768482739   -2.65528414221660
C         3.54260381074173   -1.10085021210467   -2.43281927871574
C         4.44619284548803   -1.62860205243822   -1.51794321855753
H         5.40872937029038   -1.99551626250347   -1.84325696104597
C         4.07279902698485   -1.68055143841579   -0.18652352715720
H         4.73899056414872   -2.08337526155122    0.55971133488221
C         2.82423942696925   -1.21096431283151    0.18588935219254
H         2.50602950133896   -1.24133617894124    1.21606116146672
C         3.86576990897007   -1.02750359292475   -3.90143285396791
H         4.72279914046047   -0.36941969731113   -4.06208105340829
H         3.00487560401009   -0.62599570956707   -4.44949508855285
C         3.44391472369013   -3.41371680865598   -4.19924140736645
C         3.91565963139685   -4.67797300358638   -4.92132773364183
H         3.59029708173235   -4.60028121185977   -5.96361245869823
H         3.43826254730950   -5.54838916911699   -4.46588206099887
C         5.34338431533595   -4.81104743812337   -4.86576379539608
C        -0.58503055556260   -2.48867584180760   -1.42404181768535
H         0.00438779056983   -1.97681285459375   -2.16750804670478
C        -1.10989237493329   -3.74209503036132   -1.69766590974537
C        -1.86733573228055   -4.36284602579974   -0.70878412930179
H        -2.29596254792511   -5.33897590537332   -0.87864731315242
C        -2.05899383626446   -3.69729114607776    0.48917770846412
H        -2.63793772430395   -4.14112654021978    1.28365933037340
C        -1.50061142131444   -2.44362920585231    0.66178342017808
H        -1.63214357999649   -1.91049451606209    1.59016218059804
C        -0.87535630261168   -4.42993783197899   -3.01895240622805
H        -1.82962848225584   -4.81044639443558   -3.39907053122009
H        -0.19599088542606   -5.27568950113341   -2.86364620340607
C        -1.09612136121468   -3.08259523305827   -5.02747204341942
C        -0.37637157941489   -2.10748390046778   -5.96769365772497
H        -0.36891054186105   -1.11685644185661   -5.48371848035270
H        -0.95361252462261   -2.02448065244766   -6.89173796728851
C         0.96303504448900   -2.49552356559439   -6.26132340085662

