51
CSD_code = CAXVEF | q = 0 | S = 0 | Stoichiometry = C20H18CdN8O2S2 | MND = 6
Cd        3.92962014963640   -0.00007162174365    0.00005121651327
S         2.90818398993146    2.08308721101304    1.03233489527675
O         1.72827852499363   -0.58472866209876   -0.87790099800787
N         5.07882597699027    3.64817922898698    0.24296880340303
N         3.49797149857981   -1.31769566000982    1.99906664129011
N         0.58896613822729   -1.91787194373463    0.55087398800590
H         0.22859770818825   -2.85349360900425    0.66842769573635
N         0.67463697102854   -1.19529068847513   -4.05874931142717
C         4.17232434532600    2.99918437750813    0.56051477076792
C         2.33715024486196   -1.90660229455990    2.27996635012044
C         2.26441695213089   -3.07947734957827    3.02236535382652
H         1.30605217349936   -3.53404407458991    3.22305119813438
C         3.43235720849311   -3.65253914181456    3.49321334846589
H         3.40363271157377   -4.57043539315311    4.06104433393639
C         4.63443021832069   -3.01829903787226    3.22581005991513
H         5.56940444463253   -3.41724896173813    3.58473928141835
C         4.61777065808550   -1.85594548133812    2.47349186620199
H         5.53380686474578   -1.32640454622816    2.24242525309146
C         1.07672743450599   -1.26116318349883    1.75151085946520
H         0.28750821135467   -1.30971428287255    2.50644325499474
H         1.27708229293532   -0.21513939491101    1.50239461358942
C         1.03068779935341   -1.56518105465548   -0.66957727781988
C         0.50257145315461   -2.44148744910710   -1.80331821367626
H         1.12688271617372   -3.34232443489127   -1.83199671017962
H        -0.53627218233447   -2.72872611942015   -1.62408902144883
C         0.60467604878506   -1.75453299986928   -3.06544603568038
S         4.95084668651381   -2.08315166231633   -1.03241162464961
O         6.13084361328219    0.58478463338392    0.87828434208622
N         2.77976526273144   -3.64783097243740   -0.24347470986459
N         4.36140132187869    1.31735348774780   -1.99912415215776
N         7.26996161390486    1.91817035705024   -0.55041915368689
H         7.63004690730389    2.85389965770840   -0.66799703614619
N         7.18081982664196    1.19701981787624    4.05957340486130
C         3.68650979360431   -2.99914119346092   -0.56093658653737
C         5.52219490720319    1.90636373262511   -2.27992896549753
C         5.59490736010057    3.07906965709537   -3.02259609639610
H         6.55324463069706    3.53374294687209   -3.22317468326317
C         4.42697947385461    3.65182276205833   -3.49385433912601
H         4.45568362465701    4.56958109673541   -4.06190872760948
C         3.22494718685979    3.01745742033200   -3.22656196742634
H         2.28998967423732    3.41614882983632   -3.58582089943022
C         3.24161973800881    1.85530738680758   -2.47392754281146
H         2.32561412790231    1.32567068525163   -2.24295130323986
C         6.78260034654212    1.26121017020326   -1.75108059070470
H         7.57198805506632    1.30978429858591   -2.50583735283879
H         6.58236131030363    0.21518821076414   -1.50185841221285
C         6.82814286412499    1.56545450086473    0.66999590733774
C         7.35579830752852    2.44209074096564    1.80369814738138
H         6.73196620755579    3.34328650158983    1.83140634215379
H         8.39493089254713    2.72864926220578    1.62506496675877
C         7.25254571378343    1.75603423930510    3.06622481711273

