60
CSD_code = CAXWAZ | q = 1 | S = 0 | Stoichiometry = C30H28PRu(1+) | MND = 10
Ru        9.62247966001077    2.75616932387337    3.47096402125678
C         6.98471690806958    2.35206322506655    2.54425107158938
H         6.40997147035984    1.43969058449414    2.41448350949594
C         7.52052535220781    2.64345983740429    3.94216790637655
H         7.24930046440141    2.05511197675443    4.81173600374427
C         7.86322634037335    3.99949624037734    3.96549963661593
H         7.82601039056105    4.63080258058750    4.84580137008974
C         7.54468376862707    4.52387163686552    2.56134120678190
H         7.47097894700910    5.60018690619906    2.43941979802042
C         8.65062207512578    3.81100725642424    1.77544530790783
H         9.21594144314077    4.30895376321358    0.99634800521525
C         8.29763976707907    2.46070101932787    1.77624425587459
H         8.60716966163616    1.73331080786445    1.03547726516724
C         6.31222984796270    3.68512404477504    2.19080570231398
H         5.44553134256459    3.90437487632408    2.81233202094081
H         6.04469976443454    3.76344719100681    1.13837269828706
C        10.16559766920568    1.30142412153363    5.09239061637658
H         9.83609834032137    1.26618110330199    6.12159084686924
C        11.35002068373727    1.90595536300372    4.61710692588473
H        12.09312722320844    2.41455839424205    5.21984561919329
C        11.51920168536921    1.53607365366339    3.24037503335359
H        12.41367041905184    1.69881729472799    2.65649722096358
C        10.44608111590659    0.69500951200916    2.89297659677160
H        10.34476620665434    0.15625155217639    1.96225297622877
C         9.58671224312027    0.57653005556288    4.01287086630406
H         8.75468367184768   -0.10828254292233    4.08906239275356
P        10.71929192859503    4.83217259579174    3.69750124812824
C        10.15553681102181    6.37837053625482    2.90640842266919
C         9.21844380645510    7.16303074346841    3.57947685488215
H         8.85816673177874    6.85660695578828    4.55170406254478
C         8.76131353614398    8.33953851405146    3.01703921880336
H         8.04116131578158    8.94264466537722    3.54860744442674
C         9.22887788717094    8.74566117536828    1.77672873519664
H         8.87234162297616    9.66494427749525    1.33908001176131
C        10.16135198356466    7.97293996130818    1.10590620465228
H        10.53635886559403    8.29004994811639    0.14483298574158
C        10.62398942305335    6.79350095816125    1.66407536723150
H        11.36584194700005    6.21263990999317    1.13686650397897
C        10.90039271896630    5.40289828457304    5.41338419176554
C        11.53927921729689    6.61642829337734    5.67185415325573
H        11.91566755654771    7.21109271269874    4.85064707912051
C        11.67660571841812    7.05871247927783    6.97378021686252
H        12.17423676625351    7.99580952566808    7.17087566560973
C        11.17257868674560    6.30541031138443    8.02385290808238
H        11.28088907112323    6.65578679790686    9.03846719878247
C        10.52201737788363    5.10958976936497    7.77018312047376
H        10.11869061017723    4.52910156657488    8.58592053513313
C        10.38486269023682    4.65973360301405    6.46821131236870
H         9.86287456735242    3.73285608212805    6.26200182071921
C        12.42130164272809    4.65662901080819    3.06853418157289
C        12.57123541990781    4.18556108476086    1.76296517816315
H        11.69225816357625    3.91006443395337    1.19027567106506
C        13.83048626290671    4.04399842499972    1.21147974705180
H        13.93828196315140    3.68835866495392    0.19776130012240
C        14.95379818063576    4.35071821754176    1.96456950285130
H        15.93745245787628    4.23849056418379    1.53602619431922
C        14.81147164411110    4.78631503690365    3.27082059690821
H        15.68477050575761    5.00808527776633    3.86489984812099
C        13.55170078189013    4.93999186267151    3.82603510339094
H        13.45538567535676    5.27447797646549    4.84856853988854

