121
CSD_code = CAXXEF | q = 0 | S = 0 | Stoichiometry = C43H73NSi3Zr | MND = 8
Zr        8.86396825250161    8.88653525344036    7.47211900479544
Si        5.90078126535672    9.48271804775453    7.87577172662307
Si       12.21485350515792    9.42936561979698    7.99877343854896
Si        9.05127187360512    5.32334789906283    7.77683603665603
N         7.24708920922005    8.93155232150543    8.80239422289421
C         6.92669657931333    9.81573708890839    6.31982036883387
C         7.38113245718267    8.82827989010445    5.38993535143302
C         6.79548018213106    7.63969598857114    4.92353398578691
H         5.83757609109187    7.35172174107394    5.32704507527844
C         7.37176294600096    6.89287969280577    3.91203703284726
C         6.59896801653804    5.70093942811020    3.37079738184572
C         7.53605805670691    4.73765075291006    2.63506897299434
H         8.15931093210818    4.22086340450391    3.36779536507823
H         6.94008851885409    3.97946464868613    2.12077615344411
C         8.42111637317691    5.45221282814634    1.63007079900753
H         7.79550716151106    5.95246238217863    0.88900440935433
H         9.03389944280044    4.72060181030432    1.09729270040242
C         9.33963956681102    6.48637335957867    2.29011703869799
C         8.59742855411967    7.30706270978677    3.33222744947138
C         9.19093310473606    8.48036695978967    3.76887512049128
H        10.10920880838505    8.82276665114286    3.31302809487606
C         8.61410018511161    9.25539565798367    4.77391059653300
C         8.94234484316365   10.54029375668322    5.32797192311071
C         9.92459000855546   11.48435150048982    5.03389235649724
H        10.65459816301907   11.25541109108406    4.27063372633766
C         9.95619203141596   12.71405257571184    5.67299445756789
C        11.02964833068244   13.70554466544731    5.25743932113969
C        10.72846938283688   15.09946921747351    5.81869395375453
H        11.61022338685089   15.73324151256020    5.69720233630213
H         9.92004708303399   15.54890947708552    5.23929189666454
C        10.33164502375933   15.04727523990813    7.28301445688367
H        10.21931250303032   16.06223041648256    7.67163014053481
H        11.12510784073914   14.56447037611743    7.85655124151504
C         9.02138277928471   14.28040492475014    7.49421661541785
C         9.00350513602634   12.99493839304754    6.68210797046249
C         7.99549469824321   12.08607547104756    6.95537260125493
H         7.22621975915323   12.33729445267303    7.66972053840315
C         7.90529901267697   10.86041061870795    6.27769386711578
C         5.90292195937301    4.89998199346666    4.47975110159048
H         6.60665271693048    4.65097035701397    5.26981738621753
H         5.50952444099807    3.97356096798418    4.06450718494244
H         5.06905479519604    5.44494170602683    4.91309882241077
C         5.52192912653060    6.24221941620108    2.41693746284304
H         4.96914507503887    5.42186112836909    1.96295425830179
H         5.96330815191006    6.84554107906768    1.62828644784480
H         4.82345553262492    6.87172379768270    2.96331639136608
C        10.50887439230725    5.78023387798986    2.99636877026919
H        11.17240032441941    6.51127970701032    3.45348570485671
H        11.08270989370959    5.19169473213180    2.28282322187336
H        10.14910987186749    5.12019139016219    3.78171165495175
C         9.90354965839596    7.37176912614591    1.16744086500875
H         9.13830319805136    8.04997240478325    0.79579497564436
H        10.23955624382788    6.74521219843900    0.34315866789318
H        10.75409253017572    7.95984473035338    1.50038176232541
C        12.39151808309940   13.21276343550427    5.76646991021055
H        12.61853818625478   12.23272113149821    5.35445388347217
H        12.39170611293245   13.12641234295461    6.84996713741115
H        13.17961226262693   13.90312933848102    5.47113532696949
C        11.08915124076496   13.83269222494992    3.72693979062615
H        11.49775006894057   12.94064152596388    3.26116435335882
H        11.72590546666525   14.67207443505725    3.45322683281889
H        10.09473451317158   14.00638620945816    3.32143229657112
C         8.91375129886261   13.96513902000990    8.99532536307291
H         9.65822491759189   13.22457709771952    9.28254545105105
H         7.93143423705459   13.58622600186105    9.26165047982900
H         9.08950514405212   14.87113469594176    9.57257184347518
C         7.82694859757695   15.15238338860232    7.08179051231876
H         7.87929481907110   15.40703876286724    6.02644177809459
H         7.81307460034974   16.07361414733586    7.66130229546227
H         6.89163958309585   14.62492663777196    7.25034303659495
C         4.91613830214945   11.04342261147999    8.43685560627678
H         4.12504816492657   10.76240480223071    9.12515565318813
H         4.44681413780200   11.53040492145195    7.58809878195441
H         5.53098933493840   11.78238029605092    8.93895322711126
C         4.48733600080622    8.20564973201016    7.59981327875375
H         3.83770507728541    8.16634365636241    8.46829324877185
H         4.85734931050959    7.20101339515498    7.42985132031741
H         3.87294556595082    8.48630761538402    6.75043662930399
C         7.36200568554920    8.93031984547580   10.24857388701946
C         6.08932493195953    8.40038262974846   10.92795548877802
H         5.85645790147754    7.40686131516123   10.55464569661259
H         5.25019618658134    9.05393615734663   10.70973317384040
H         6.22547735936220    8.35180737964599   12.00587920134199
C         8.53943154881614    8.01745359935038   10.65164169573834
H         8.28929952938728    6.98357325407585   10.42283654314539
H         8.73107207709834    8.09705526609173   11.72090885052317
H         9.44507148060669    8.30071934215540   10.09763174350003
C         7.63624994530330   10.36444012318345   10.74998955532850
H         6.72678750425874   10.95480431174928   10.68543262624870
H         8.39677322032400   10.83112138831694   10.12029132217831
H         7.97203188508739   10.36214800342435   11.78473875029694
C        10.51516317097502   10.14155313765433    8.34435519295229
H        10.42138228828096   11.11714567846433    7.84553727480055
H        10.42451222476493   10.33369396128076    9.42316379353249
C        12.31447626269691    9.00313192039633    6.12533898682817
H        11.31859422178928    8.89779163465394    5.69103333196281
H        12.85754103326305    8.07910749571942    5.95089802356820
H        12.83601085954373    9.78273950347845    5.57875845034799
C        12.43773594950907    7.86065705147994    9.08657618703328
H        12.71916363334298    8.13673239265608   10.09815025432285
H        13.22353508322669    7.21749558378748    8.70364732794920
H        11.52414069620246    7.27411944187132    9.14313259594809
C        13.75594705956006   10.51226071949658    8.38718496010546
H        13.75103675805264   10.84034878724118    9.42230863717108
H        13.79403817887286   11.39980433140707    7.76416300434192
H        14.67847804759703    9.96244370395408    8.22598494062607
C         9.70648275945782    6.87653855063139    6.95271792235641
H         9.44483644065702    6.80847363237195    5.88345857186482
H        10.80160307161361    6.86285673853485    6.99080659348305
C         7.20834351562467    5.63019748025905    8.21760135273294
H         6.55231117628122    5.28399988163462    7.42546664004064
H         7.03105719838454    6.69940729620951    8.35762336760596
H         6.90974660419550    5.10747966405281    9.12200496038442
C         9.13503982816533    3.73099486075354    6.69805685998698
H         8.71488898503622    3.89765200680457    5.71084050322336
H         8.59129485845829    2.90530695184558    7.14737967738334
H        10.16271887298500    3.40824697799200    6.56027185422800
C        10.01917871403386    4.83246444751773    9.36379684390524
H        10.10522949775141    5.64256348187800   10.07999076433008
H        11.02534486210650    4.51320502546896    9.11158989345189
H         9.53583488900111    4.00061118054010    9.86699225477281

