90
CSD_code = CAYCAH | q = 0 | S = 0 | Stoichiometry = C45H39ClFeN4 | MND = 5
Fe        6.78183266076058    6.82111395216191    4.77556477224099
Cl        5.22657638831163    6.02135442796978    3.73675962585675
N         6.33744018650331    6.44097458904265    6.49462381947166
N         6.08937730262428    8.62273783287827    5.03737266592609
N         7.97998742328737    7.32730291773683    3.42022675535539
N         7.82973982218297    5.23974448155880    5.01635207970361
C         6.65814595562715    5.18473345025552    6.97069639204007
C         5.86102573932985    4.89126727117651    8.09668176122096
C         5.08283100631474    6.01200655018174    8.34485029459463
C         5.39936493904108    6.98626050916992    7.34652756098642
C         4.90427904833534    8.27446325905417    7.15025694709791
C         5.32458278400946    9.07646242854711    6.07896576217300
C         5.14790150733414   10.49985248676400    5.95190038492421
C         5.83727442716076   10.89080941514155    4.83480220856705
C         6.37993198837868    9.69552780497067    4.24329088842146
C         7.07991198952738    9.58494580605383    3.03573352547496
C         7.74553255142218    8.42968874651065    2.61570019325972
C         8.27626693387740    8.17814065802968    1.30783901410183
C         8.90399834303742    6.95347642485681    1.35136175539437
C         8.76246057775363    6.44640135695670    2.67939702181272
C         9.31645635734445    5.25014516537260    3.16162103996358
C         8.89481119472977    4.69892738174337    4.37049811354945
C         9.41427543633677    3.62038692902046    5.17202705908364
C         8.62102268251975    3.53621127126667    6.29365808124696
C         7.63487005033532    4.56296494640029    6.17546829680310
C         5.82443281773337    3.59699019433670    8.83465346325976
H         6.45886515374577    3.63137313435098    9.72132021170539
H         6.16245714044761    2.79107140862379    8.19150639454592
H         4.80986027862651    3.37399278008837    9.15951058431314
C         4.05628552075948    6.11738887397721    9.41884950966428
H         3.85835542471240    5.13625493040314    9.84340273518793
H         3.12478403489841    6.52440607719091    9.03207590358526
H         4.39632367879225    6.77099083589604   10.22181735874662
C         4.40285453780964   11.40174983328924    6.87561076663042
H         4.48715165218721   12.43289790310898    6.54312120153139
H         4.78831946425231   11.33236745443771    7.89132484388697
H         3.34611896466466   11.14313061518829    6.90236395058743
C         6.05690738942218   12.30306174689809    4.40476242825507
H         5.97117708061633   12.96847370661489    5.26152483016418
H         5.32474935031738   12.61332580117903    3.65966728569959
H         7.04703590607311   12.43144021372157    3.97753275087663
C         8.08931262207425    8.99723730401652    0.07683037502446
H         8.83642573388553    9.78743937077133    0.00949416875875
H         7.10708451900700    9.45995671897886    0.05897456205268
H         8.18561968396407    8.36977319490694   -0.80633943120955
C         9.54237049825351    6.26357989113268    0.19468217106031
H         9.15551898538151    6.65995525017321   -0.74112011427740
H         9.34535345673630    5.19565362662345    0.22050767902399
H        10.62254420701619    6.40770074558315    0.19793745537077
C        10.61998112129159    2.79445434094446    4.88191096533079
H        10.98450007119251    2.32642270796697    5.79386130177421
H        11.41691074533863    3.40381602876360    4.46165748855018
H        10.39128645080333    2.00404271729973    4.16716289239639
C         8.78995812083577    2.61713370588340    7.45380327938943
H         9.81897878882979    2.27111994205525    7.52265829651058
H         8.15061893247579    1.73964535220322    7.35003074530167
H         8.53339499976782    3.12636277109429    8.37864535275162
C         3.94182613927719    8.81355803357442    8.13522810416488
C         4.36974817350377    9.24245203512227    9.38700874299679
H         5.42194320405119    9.19564439986976    9.63022425156569
C         3.45990422230872    9.73292550307985   10.30659586984413
H         3.80168009869869   10.06910729321045   11.27495710069532
C         2.11330121684305    9.79136046520245    9.98909761359928
H         1.40338012686177   10.17075788958345   10.70905786349022
C         1.67948191837718    9.36190788208695    8.74593376530461
H         0.62936314558681    9.40438526775987    8.49566121692869
C         2.58842801559159    8.87907700591268    7.82117140351203
H         2.25616502544258    8.54168521837398    6.84994165577135
C         7.10839777169315   10.76756837606073    2.14870073947139
C         8.29942582332273   11.44838856533950    1.91404291625416
H         9.20646808194584   11.10384391983452    2.39009297629339
C         8.31853744222832   12.56173528984636    1.09342572361057
H         9.24605163442990   13.08962529536791    0.92435793122467
C         7.15269099304518   12.99895915678306    0.48683389084999
H         7.17005927686680   13.86505862863859   -0.15799955188762
C         5.96465779448901   12.32264956512973    0.70997235134267
H         5.05430765702678   12.65960761595734    0.23563149093413
C         5.93939639746627   11.21798863495311    1.54180762570304
H         5.01617981751581   10.68565554435368    1.71953412874689
C        10.37451496343575    4.55896807588656    2.39973675717783
C        11.63081156998783    5.14027152550797    2.25801448898708
H        11.81517146025187    6.11118701173184    2.69540559963903
C        12.63538520136218    4.47667881200666    1.57679658427384
H        13.61007948118184    4.93259176725536    1.47822311960841
C        12.39407128481260    3.23129625441238    1.02138223060092
H        13.17813051203190    2.71597216457267    0.48661945599217
C        11.14438412111883    2.64839369770207    1.15391583836567
H        10.95249283657625    1.67831018274044    0.71875105513566
C        10.14173572583693    3.30382240483165    1.84444581849849
H         9.16389423883138    2.85595727679374    1.94851381557689

