32
CSD_code = CAYCIO | q = 0 | S = 0 | Stoichiometry = C6H14CoN5O5S | MND = 6
Co        2.56221844126460    2.17555692333249    2.11053164368676
S         4.12142115347754    3.78607739788817    2.93140778543408
O         2.95728958171485    1.86751103496462    4.57463098774486
O         1.29094201964933    0.72834771633733    3.82489672532884
O         4.81709694113392    1.18257631846767    1.39323431206822
O         3.23957388089010   -0.26608842198763    1.68645365850115
O        -0.67034708373809    4.49261832928420    1.59214987709651
N         3.13437629694446    3.11473672166061    0.17062485030530
N         1.27358383407163    3.60507772404553    2.36773229862313
N         0.94287925481386    1.26510440616368    1.21988419395071
N         2.21450843525179    1.49169716381680    3.70030720497772
N         3.68439166494524    0.86773703146701    1.72181978385865
C         3.42548038585596    4.54343080039809    0.32268191811542
C         4.46954803240644    4.74156394953830    1.41257480640259
C         2.87470096817753    4.80231560559259    3.79509203491199
C         1.52438564571953    4.84014408730780    3.09351052977804
C         0.14106113512829    3.58070972054816    1.67516903514368
C        -0.07899297974281    2.26629452391315    0.89311438393506
H         2.44424362016023    2.99753611334984   -0.56697148164435
H         3.99007339710494    2.64382127159360   -0.13010610850207
H         0.58487595247313    0.65201517686275    1.95770555784947
H         1.13356767639042    0.66090939581092    0.42163931806948
H         2.49667167515896    5.05331522887802    0.58095329140786
H         3.80629268555505    4.98078939340408   -0.61181686436441
H         5.43667473748816    4.35919043192298    1.08391256981870
H         4.56910525243402    5.79095896111632    1.68264897114276
H         2.79992793321748    4.31550310142305    4.76713804198029
H         3.29328082773390    5.79916829209558    3.92580203342126
H         0.73130754266719    4.99315996112584    3.83737073878418
H         1.46968744948898    5.69333832247179    2.40249792513744
H        -0.04603688202595    2.51800624181830   -0.17040958630010
H        -1.08798947581098    1.91027707538853    1.11881956333660

