57
CSD_code = CAYGAK | q = 0 | S = 0 | Stoichiometry = C25H27IrN2O2 | MND = 7
Ir       -0.14030711617343    3.74685574224232    5.53739880641891
N         0.76132608070373    2.16223207371195    6.47943442803538
C         0.41898303834912    0.95434738047262    5.95276195916141
C        -0.57062007876714    0.94812499559107    4.93700812423355
N        -1.08554381365941    2.15219125519334    4.56820619112774
C        -1.93016430940068    2.16474433768355    3.53993961287945
C        -2.34754380390725    1.01785338931823    2.87825629898405
C        -1.87109495282522   -0.21508547716187    3.27461681677929
C        -0.93955286235778   -0.26685265957322    4.31772527636164
C        -0.32562944523962   -1.47518751207109    4.75528531425832
C         0.62240024262586   -1.46902803157073    5.72136247737479
C         1.03742596289834   -0.25596772645807    6.34093635332774
C         2.05162739716589   -0.19884699598168    7.29954119379494
C         2.41314796229911    1.03456682266119    7.80007965338439
C         1.75370975652091    2.17399528175579    7.36329849093769
C         1.62550667092014    3.45505415613069    3.72718931887681
C         0.88622447756120    2.85173072062326    2.64636246662690
C         1.22485799702603    1.42980649886818    2.24251436766850
C         2.71230523884106    2.81599545461433    4.41153857086051
C         3.76807225008978    3.76396959670565    4.97575263462984
O         0.03722950470571    3.47181856970428    1.99886614502015
O         2.86567740922933    1.60255301716998    4.57370040505608
C        -0.21994168162225    4.81535987443332    7.38630814702637
C         0.78841444586423    5.37077662707680    6.55866623597999
C         0.63215010223171    6.73204621482714    5.89566736424010
C        -0.02750688695900    6.63678610665544    4.50598791198655
C        -0.85926660355038    5.38329446749389    4.33348145746011
C        -1.88358525518216    5.03451092157973    5.21619485994156
C        -1.54960026827427    5.48197459057583    7.67206726503621
C        -2.27612240526587    5.90968358763205    6.39144968549720
H        -2.29572801615632    3.12478328932016    3.21217391064145
H        -3.04239314488882    1.10735741902249    2.05851424865211
H        -2.18429088324337   -1.12401648327355    2.78351573188818
H        -0.62271406063494   -2.39612517165971    4.27523621651557
H         1.10174650275751   -2.38525948066080    6.03295992416675
H         2.55155324873746   -1.10174715302754    7.61499924918394
H         3.20874719210745    1.12929682812173    8.52225176334133
H         2.05373376190671    3.13718835606071    7.74964263585137
H         1.72226673518939    4.52890224028035    3.62345170419111
H         2.12786546148084    1.46478739873988    1.63284802494869
H         0.41753046739743    1.01331460900026    1.64244069944762
H         1.43316075941342    0.80336354160225    3.10302845266118
H         3.37043559489651    4.75344921803261    5.17552236152772
H         4.56056910764365    3.85255491462428    4.23297832962576
H         4.20412880054895    3.34134388835775    5.87897929106326
H         0.11273761264762    4.21420697797113    8.23215057065364
H         1.81603880088269    5.15892174748478    6.84845481140796
H         1.61703198708568    7.18957675740105    5.78834952016747
H         0.04990978822719    7.38095480177779    6.55266466030846
H         0.74678213981339    6.63593834008906    3.73856905674958
H        -0.65704760641633    7.51378104372945    4.32216133311816
H        -0.91488038963709    5.03709854343103    3.30253577132670
H        -2.69907521632766    4.42146443372628    4.84402266258819
H        -1.38923187760515    6.34063884679961    8.33350751459766
H        -2.17112124350146    4.76822958610591    8.21551581210041
H        -3.35393451645240    5.83889998094120    6.54683794047566
H        -2.05150005972066    6.94939224610005    6.15248996983421

