86
CSD_code = CAYHES | q = 0 | S = 0 | Stoichiometry = C44H35CuN2O2P2 | MND = 4
Cu       -2.23399917879850    3.60507662808712   19.64006587753252
P        -2.35291470912078    5.80520623601076   20.17634941614926
P        -3.04604696453465    2.24951002154226   21.23419471489885
O        -0.37251369193032    2.98086371879445   19.32783360901097
O         0.96421566170698    2.42342263379597   17.63393016019175
N        -2.40824318091359    3.47073091729084   17.60848380994610
N        -3.19647472829547    3.83456942533408   16.57857144870107
H        -4.17050722536993    4.04315049104694   16.72371707688189
C        -1.20316461237386    3.21798596970755   17.14434549191306
C        -1.18407836032675    3.40577428258924   15.73559667577735
C        -0.21661185704673    3.28599416233915   14.73802248900368
H         0.78170438243384    2.97515422953965   15.00038972602875
C        -0.59351198140217    3.56785095231984   13.44647062762875
H         0.12660522947985    3.48282537543793   12.64622822912733
C        -1.90117919216018    3.96447919603946   13.13364564415894
H        -2.14998811427075    4.17325432865043   12.10330348328169
C        -2.87393373424229    4.09306128606494   14.09958239505327
H        -3.88054313265807    4.39743547808584   13.85441350881742
C        -2.50181076721941    3.80866143250433   15.40933932667115
C        -0.08911850714700    2.82956304051116   18.09876457102248
C        -1.85596810052233    6.98315688356948   18.87770434809733
C        -0.79760188223620    6.55971119312930   18.07605228226205
H        -0.34054794405391    5.59827206726419   18.27108452992882
C        -0.34130336527072    7.35821360204143   17.04559316085762
H         0.47317968327353    7.02009764545040   16.42239440720480
C        -0.93704234591346    8.58798158732388   16.81229465667923
H        -0.58645795727652    9.21333107657744   16.00453311283652
C        -1.98106671940569    9.01755036490587   17.61537655977357
H        -2.43836667991081    9.98025079241296   17.43659132237946
C        -2.44506297186942    8.22088847475139   18.64747083472621
H        -3.26326705030185    8.55906567134645   19.26818096906840
C        -1.15363633501423    6.23563897247615   21.47522220049104
C        -0.21401264545306    5.27217790447173   21.82497036210992
H        -0.21862635539725    4.31477700264764   21.31942222528470
C         0.72540167271488    5.55071891130743   22.80197567419556
H         1.45282620244530    4.80130579023119   23.07563051090200
C         0.72882086160340    6.78641864503345   23.42661065312384
H         1.45763602846063    7.00242887924588   24.19428701984511
C        -0.19410469028200    7.75552529523322   23.06202250419981
H        -0.17850076608927    8.72417334554316   23.54100648438045
C        -1.13202169619535    7.48788027528177   22.08298717114044
H        -1.84729707102663    8.24395492887086   21.78784876117735
C        -3.94705246309658    6.43424372640401   20.77554615613217
C        -4.97199044124165    6.56552421778157   19.83809655388430
H        -4.74571540729415    6.41517338211964   18.78972194182877
C        -6.25218698423545    6.89013140839468   20.23945575279950
H        -7.03628395130030    7.00706941926298   19.50493075845699
C        -6.53363938622497    7.05793824772120   21.58664668134436
H        -7.53613583958309    7.30425840005825   21.90338198236381
C        -5.52768311172421    6.90422512985613   22.52536343688682
H        -5.74723566953651    7.02792354557811   23.57594085805327
C        -4.24070853260899    6.59202502024436   22.12600780290476
H        -3.45716863722233    6.48061754703248   22.86218067575673
C        -2.98231032931917    0.46159283305142   20.91717087921133
C        -1.85448812367786    0.02352037283896   20.22330722101327
H        -1.10790849240132    0.74775486654968   19.92104830862263
C        -1.70614416378022   -1.31686832877932   19.92175750561122
H        -0.82987835582833   -1.65512731202592   19.38879337086768
C        -2.68892660886634   -2.22099635980725   20.29458637276617
H        -2.57727625769319   -3.26856286006251   20.05580548545578
C        -3.82052672722715   -1.78273505079046   20.96328091694039
H        -4.58933549371531   -2.48885101274031   21.24281444510673
C        -3.97432215220548   -0.44311721150215   21.27548696884309
H        -4.86145196067498   -0.10229946273552   21.79076305355365
C        -4.75212863948035    2.57656506292465   21.78113186414109
C        -5.57377147210788    3.25628049693194   20.88892280468443
H        -5.16562821653343    3.54335954420595   19.92705137931068
C        -6.87544143299385    3.56792470252760   21.23444546707351
H        -7.50918926222570    4.09864811025947   20.53952407748092
C        -7.36130566468818    3.20459188191207   22.47936824610590
H        -8.37597625767421    3.45043842791198   22.75589992711951
C        -6.54645430303909    2.52828358353997   23.37394159439284
H        -6.92891430860537    2.24622625084921   24.34428534679276
C        -5.24447642642121    2.21363126039323   23.03075681828349
H        -4.60427268241838    1.69487517453040   23.73105562850707
C        -2.11622118288569    2.43001494124470   22.78568542616686
C        -2.36425730244031    3.56658222176732   23.55375346875448
H        -3.16097718349679    4.23643195512118   23.25764904788949
C        -1.60506663677926    3.82830952186494   24.67648116854102
H        -1.80337616223473    4.70984975731320   25.26918333660299
C        -0.58155243348004    2.96526389778047   25.03594770902710
H         0.01577750188090    3.17161383983332   25.91181104825592
C        -0.32239537994844    1.84246761560855   24.26789230983434
H         0.47904355946370    1.17285592363863   24.54439054538098
C        -1.08080214840232    1.57390067447643   23.14201991024027
H        -0.86891008406069    0.70245552200818   22.53950771258079

