51
CSD_code = CAYJAN | q = 0 | S = 0 | Stoichiometry = C22H22CdN2O4 | MND = 6
Cd        0.00310181282383   -0.48204264919775    3.17436376426965
O         0.57796832610218    0.92943112436162    4.63193874293125
O         2.03392890310445   -0.42698779009368    2.59775810422077
N        -0.29949005784970   -2.30347635216990    1.84944850260270
C         1.28238540683111    1.89562477707120    4.23521636513550
C         2.26743513009718    1.84084823760317    3.24542722544566
C         2.56065071178760    0.70855444726317    2.47643046130077
C         1.07779412456359    3.23856510732330    4.92203423669653
C         3.63037262351992    0.87901817535806    1.40763500053212
C        -0.58483780795967   -2.28085032098494    0.57112447133920
C        -0.75497502216057   -3.44615172641352   -0.18894073325230
C        -0.61930502467703   -4.66610375453374    0.42677527701319
C        -0.31192873924716   -4.71336496267610    1.79751551634343
C        -0.15870038729255   -3.47974959491778    2.47190888286719
C        -0.15322482986097   -5.93489623178597    2.51357595836093
H         2.80977044037156    2.74943996359809    3.02675023495988
H        -0.68474239757429   -1.29874325269192    0.12726832080941
H        -0.98944939846416   -3.37629718359982   -1.23975957791210
H        -0.74418427221543   -5.58882111420524   -0.12264264606189
H        -0.27627217906664   -6.86239220319639    1.97314863934704
H         1.92485931514208    3.44661286289637    5.57372466000493
H         0.17008635814662    3.20637678309641    5.51975260672334
H         1.00620490701211    4.03787183012260    4.18926486495055
H         4.53270464478592    1.30874524236199    1.83638823187999
H         3.26640570016217    1.54971506412679    0.63193974862636
H         3.85964150055861   -0.08625331147906    0.96325280518364
O        -0.57315025578753    0.92881528511907    1.71665451454545
O        -2.02832718896194   -0.42913382664544    3.74984825628249
N         0.30465066014781   -2.30451929027393    4.49871538005542
C         0.15901690438426   -3.48029847578102    3.87640791680429
C         0.14325362758765   -5.93541555014710    3.83508152571000
C        -1.27961514238623    1.89404682448242    2.11211611935164
C        -2.55761141904068    0.70537210393970    3.86987918161141
C         0.58957474566462   -2.28293792549664    5.77715483194851
C         0.30691174944458   -4.71445540664595    4.55100390931019
H         0.26246332426757   -6.86334016836830    4.37563305417285
C        -2.26568028857095    1.83797416252392    3.10080332419664
C        -1.07645881697707    3.23671249910770    1.42432399850430
C        -3.62953959084767    0.87385712358882    4.93678074774582
C         0.75444234572989   -3.44884398419274    6.53746913442891
H         0.69343152942604   -1.30121570249071    6.22096166966830
C         0.61396382850774   -4.66830209260627    5.92185730555589
H        -2.81014884973559    2.74553651247040    3.31845077129099
H        -1.91800007340219    3.43712000027831    0.76304708431178
H        -0.16254440447332    3.20870659746727    0.83587674035295
H        -1.01788397658291    4.03862967738390    2.15532714881536
H        -4.53333552890114    1.29794574730583    4.50540663558037
H        -3.27007495985106    1.54855666177176    5.71109070225114
H        -3.85491405618700   -0.09129019670719    5.38345483228959
H         0.98866575606758   -3.37982803267011    7.58840011606015
H         0.73471029186681   -5.59146571064400    6.47145543484217

