56
CSD_code = CAYMAQ | q = 0 | S = 0 | Stoichiometry = C22H32PRh | MND = 7
Rh       17.51361170626242    6.48463253709148    0.10703423848381
P        16.17384130238135    5.60007027816334    1.70648488087837
C        15.07293368597901    6.83191192804939    2.58408124891568
H        14.63572258074882    6.36460195343434    3.47186003859260
C        13.95519010479843    7.32487205139228    1.67168082764474
H        13.19188926262178    6.56594159922640    1.52072954808923
H        14.36195942282680    7.61038287702124    0.70303290927339
H        13.47522862063595    8.19806917760480    2.11103953775771
C        15.95463081563939    8.00583040112632    3.00032777432337
H        16.73148760740225    7.69542906783627    3.69663152865921
H        15.36118529910155    8.78559774540232    3.47523432714627
H        16.43239543677596    8.42547042453484    2.11123307222392
C        14.93662062757045    4.32413712042519    1.11727993436338
H        14.28555260156754    4.94483817101532    0.48780646464272
C        15.59009259153742    3.29786806447846    0.19419798512414
H        16.31338837571435    3.79422017834833   -0.45715671203215
H        14.83422564412819    2.82268862361051   -0.42878879307180
H        16.10005056676727    2.51986670261305    0.75475348544029
C        14.08548355117774    3.64045159284706    2.18119088841581
H        13.64259589104247    4.35963749554931    2.86572036321554
H        14.67221185754829    2.92373048536929    2.75047573580915
H        13.27590132292278    3.09319806389083    1.69892625874757
C        17.16786292181685    4.88466873187190    3.13557070703492
H        17.95963140858990    5.63518397020532    3.26827690024390
C        17.83761553139030    3.58764130353926    2.68687185375307
H        18.19369485161025    3.68102961728477    1.66014700518997
H        17.14129113455197    2.75440427225165    2.74044942139595
H        18.68681443741047    3.35518668672428    3.32885639235716
C        16.47632769894279    4.69972354228803    4.48321892942773
H        16.15217705240364    5.64799886529811    4.90393020175458
H        17.18542654678132    4.25489617469719    5.18165609015530
H        15.61874571356489    4.03836484979274    4.41241287468441
C        13.93169441565946   10.11163649495827   -1.76674382264894
H        14.22484040389993   11.04405860234122   -1.30537300424299
C        16.11087755302265    6.46959661103667   -1.08180126752528
C        14.33103385613543    7.76565144143583   -2.15943889300123
C        13.18934831221709    7.72615481608390   -2.95872682798286
H        12.89663405641744    6.79630681167366   -3.42715255297730
C        15.12847341563209    6.56370709979497   -1.94431411668946
H        14.85820539557197    5.70246505785361   -2.54879641539221
C        12.42960094494110    8.86392339946361   -3.15402175418523
H        11.54691184390504    8.81808977746617   -3.77637157637762
C        12.79401741650678   10.05952369251336   -2.55791569971715
H        12.19862581703725   10.94738350629855   -2.71288916403352
C        14.69485915948272    8.97954161680388   -1.57079246142955
H        15.59327019464891    9.01460972586714   -0.96640745318397
C        19.16499858359751    7.36414603999148   -1.08252965161527
H        19.14491115220602    7.69672930041353   -2.11071835433562
C        19.66633075237400    6.10591202108613   -0.63720611061298
H        20.03034978743280    5.31063631025486   -1.27024212484806
C        19.00960256650867    8.20870170909568    0.05502586937495
H        18.80436569173161    9.26891771223343    0.03276037518151
C        19.28824036433341    7.43300502618205    1.19728994478846
H        19.37211001631601    7.80731974386402    2.20806016301477
C        19.69758833600422    6.13719259739700    0.76831997692016
H        20.13182379220091    5.38244633289466    1.40781900288387

