61
CSD_code = CAYMEU | q = 0 | S = 0 | Stoichiometry = C30H24As2CrO4 | MND = 6
Cr        2.26738169707726   16.56322105438899    0.99535613714236
As        1.91371824052600   14.91923720437812    2.74888726559441
As        3.76979320849007   13.59548446960255    0.70574460602495
C         0.47988141329464   16.53993525722064    0.48439917557852
C         4.01996539201722   16.91193110145581    1.47184817753247
C         1.83987906171092   17.99154038574844    2.06208144518648
C         2.59518262705916   17.82092935315957   -0.29394153490085
C         2.59490661477675   13.13000266242049    2.16572605772971
C         2.81629261957238   14.80889948604084   -0.38308142820845
C         0.14484876685892   14.43265469310377    3.43976664435518
C        -0.69794071556645   15.51318797921961    3.69391335056910
C        -1.97408701017557   15.31310122325410    4.18648203637688
C        -2.42561324023058   14.02487103251957    4.42767813038469
C        -1.59818200379582   12.94422598058655    4.17735961641607
C        -0.31818683236970   13.14586056510087    3.68675721362575
C         2.75849534850395   15.04798270502556    4.51470879100089
C         2.69144923783718   14.01851483241900    5.44924370242612
C         3.31656103719287   14.14791446090021    6.67710223353751
C         4.00538183144386   15.31059192665146    6.98444137206438
C         4.05936425804172   16.34798214067820    6.06804906747379
C         3.43607188844311   16.21771150612982    4.83839128825807
C         5.41026150084816   14.30491316716054    1.39477771738575
C         5.68006314725105   14.40293795175577    2.75122648191720
C         6.86642572964778   14.97522916436492    3.17670711044955
C         7.78469654533155   15.43766000026178    2.24928983295563
C         7.52665037549542   15.32267220770454    0.89200664425105
C         6.34152375642936   14.75443876743792    0.46397935017581
C         4.32626255166990   11.88121641538062   -0.06448499726473
C         5.32599471374526   11.13010392680585    0.54370774433378
C         5.69972225868032    9.91223513418872    0.00307990989549
C         5.08027517531185    9.44426850034006   -1.14544356646989
C         4.08843837457261   10.19240041855567   -1.75891499557896
C         3.71238209547487   11.41126251775181   -1.21984032114780
O        -0.62308312457384   16.74549371772825    0.20761943912934
O         5.03451594225692   17.40960197630601    1.74498995164355
O         1.61881660222559   18.97797150074377    2.63751037809689
O         2.80772096992377   18.72719686406727   -0.98110946423502
H        -0.33106011687473   16.51677420519248    3.48461166576367
H        -2.62000030022147   16.15728778424250    4.37751430092204
H        -3.42344507260453   13.86303890996306    4.80761681357187
H        -1.95059576356454   11.93929988063388    4.36330717080095
H         0.31678067870647   12.28580976487989    3.49320237009743
H         2.13852629492459   13.11263651046507    5.21371945008661
H         3.26486019720442   13.34357277982210    7.39730632371542
H         4.49360820428487   15.40881293371026    7.94287445786032
H         4.58701609130797   17.25842234464505    6.31120233547879
H         3.47211789114745   17.02192960546713    4.10930505892697
H         4.95695135321976   14.05091634314497    3.48200491047889
H         7.06563923213735   15.06913785941417    4.23427015525817
H         8.70252419679238   15.89653819964678    2.58454893573855
H         8.24333542811105   15.68835184972681    0.17177244419298
H         6.10907228636675   14.66967756327018   -0.59644513405755
H         5.80749371849099   11.51010076787928    1.44089764859070
H         6.47508221480787    9.32689703146505    0.47532963073666
H         5.37541032094005    8.49456917067850   -1.56559296416294
H         3.61221726488814    9.82679973183544   -2.65671754961971
H         2.94123890392180   12.01716701661155   -1.69163021502341
H         1.77502255809970   12.54435694570271    1.72127055606524
H         3.09514715697050   12.53005224460042    2.93605071403212
H         3.46258736515346   15.06635893400245   -1.23905304971315
H         1.96363984080574   14.23280937245377   -0.79258059344356

