34
CSD_code = CAYQEY | q = 0 | S = 0 | Stoichiometry = C14H14NO4V | MND = 5
V         2.07355084180197    1.36388690383226    1.29540898999268
O         3.50250945973961    0.34570601465512    1.67258509869901
O         0.91236304339817    1.76616658250371    0.06682910395404
O         1.02569483957317    0.46512128931445    2.12501314402302
O         2.36047808597318    2.70282972633309    1.98367863718747
N         3.32578557007880    1.88236728080973   -0.32645725400265
C         5.40531668885977    1.42150650387397    0.75156014882066
C         4.77476129624339    0.55248804659698    1.67234104643879
C         5.58246566185801   -0.16594880600688    2.60389836784224
C         6.92629092359327    0.01480643175977    2.65190691878202
C         7.58163622979307    0.92341791408933    1.78344883345900
C         8.97107008622885    1.12289817062928    1.86817886465400
C         9.60592520612489    2.01378483380690    1.04504988388170
C         8.85938893903573    2.74192397306672    0.11436068152151
C         7.50374981475548    2.56298806473430    0.00871724397173
C         6.82026727752448    1.64205104016692    0.82563644607039
C         4.60382467708847    1.96939554025103   -0.29275563683673
C         2.58283598210045    2.36867462631382   -1.45449741048712
C         1.20691998783126    2.72945852767680   -0.86469094962291
C         0.06805526846347    0.20543472505953    3.05610654567708
H         5.07588844876458   -0.84456527547197    3.27535989474395
H         7.52426029442959   -0.52951494027464    3.36946243616101
H         9.52924396489779    0.56086925162918    2.60322679802072
H        10.67273281969558    2.16405323151167    1.11471193812181
H         9.35746504614070    3.45715542757529   -0.52383647421330
H         6.95856671673579    3.15996818393582   -0.70533086454582
H         5.11972923690715    2.43038904312590   -1.14165285282906
H         3.06582832929881    3.22331367541760   -1.94714449634381
H         2.45805203878708    1.55138044467268   -2.17936330611243
H         0.43228872442162    2.76425505094642   -1.64743282815408
H         1.27577771743503    3.71076519567215   -0.36112134884735
H         0.24622404664786    0.80893749022039    3.96012145522290
H        -0.91760856926264    0.47040037746475    2.64152587170501
H         0.06266130503289   -0.86266454589431    3.32145507304621

