155
CSD_code = CAYSIG | q = 0 | S = 0 | Stoichiometry = C62H82N4NiO6 | MND = 6
C         8.07445260154388    4.11564174423522    7.87721980813875
C         8.33811605544273    2.75674594649529    8.53310355241190
C         7.22143789431684    1.79579404900587    8.10330332430521
C         9.69535153016090    2.24209933763956    8.03210901793079
C         8.35246437883037    2.84130382197938   10.05237677741085
C         8.71216078020477    1.70245845780858   10.79646743735100
C         8.79517074011216    1.66372140029201   12.17727633096445
C         9.27362658626328    0.47241919984288   12.98436213485907
C         9.53603257161266   -0.75716866567853   12.11254707054411
C         8.21909614164568    0.12038565932930   14.04106071745742
C        10.58029266176755    0.87297588055431   13.68477775849404
C         8.44109364026527    2.85351367673966   12.81279585026070
C         8.03434415977947    3.99216733456012   12.10225444307104
C         8.01781726683888    4.00571723957839   10.71270612711624
C         7.97583772101419    4.43347038535410   14.19706939348603
C         7.97945195599472    5.04062076495673   15.55806808094136
C         7.26816399658165    6.27705030377766   15.75949635204283
C         5.66257581764730    7.85199853391485   15.06619577097024
C         5.47068453161351    8.53078569325165   16.28094043062244
C         4.68459832941533    9.65278854483100   16.33130106874979
C         4.40376360201825   10.41578302850872   17.61627771783778
C         5.08595178032427    9.78446112568967   18.83310075991051
C         4.92241711209152   11.85334778552348   17.47029549930838
C         2.89006765051087   10.43087403606757   17.87300821652492
C         4.11169466701356   10.11756198501254   15.12824679668778
C         4.26516467523057    9.50561723103825   13.91076554798198
C         3.64250834130514   10.03620730251163   12.62842000877539
C         2.79854777937397   11.29366302754764   12.85834656516511
C         2.73700665405691    8.95773345594534   12.01845685495742
C         4.77105328316454   10.38503027443036   11.64744557706793
C         5.04952044467528    8.31115192232964   13.85626905138870
O         8.41085610954644    3.16978606883453   14.12911860688074
O         8.61369784393432    4.47743980106498   16.44387219633321
N         6.40112648450249    6.71600193674009   14.90071113632485
O         5.23634986346242    7.67330397004789   12.75971265867071
N         7.73015577422435    4.96877535587595   13.02394515132683
Ni        6.48692370749966    6.37282028912330   12.79201092636101
H         3.51327115609761   11.01116586980592   15.17916538838811
H         4.85168281062390   10.36590585341835   19.72243169405285
H         6.16678935924965    9.77551992317800   18.71417257589695
H         4.73449535192853    8.76813017523647   18.99542152559117
H         4.75649785157265   12.40621800018532   18.39247433670003
H         5.98919561368494   11.84707055985624   17.25737591153057
H         4.41806128666165   12.37907328584235   16.66452535625345
H         2.67333942274706   10.95408825316904   18.80193090769744
H         2.35449756234507   10.92943757861983   17.07010155192122
H         2.51291955905327    9.41352653736477   17.95352350359430
H         5.91846140700872    8.12537461434161   17.17217684945756
H         7.50254207220091    6.79328481375725   16.68935321312033
H         8.95581045456650    0.80758025285961   10.25037939275154
H         7.76091441448423    4.91591925513250   10.20529992509077
H         9.71437047561793    2.24917575681835    6.94478970514908
H        10.49732490850027    2.88153401278720    8.39456460777925
H         9.88989829152531    1.22592315288739    8.36251755774891
H         7.21828042820803    1.69115953756639    7.02088375623073
H         7.35297224122929    0.81079350854347    8.54338781366426
H         6.25385152966343    2.18754411271200    8.40932511434499
H         8.12596275911965    4.00782029321102    6.79590749429047
H         8.81726032685023    4.85048928725363    8.18002255710629
H         7.08248918561233    4.48489285009784    8.12527636688746
H        10.96457797949229    0.03519961810978   14.26179754206390
H        10.41530864128389    1.70648422641475   14.36190051580246
H        11.33119405894971    1.16241040933933   12.95206557480678
H         8.53352110256719   -0.75759965402704   14.60093370573481
H         8.08400014640763    0.94012322738456   14.73903004339521
H         7.26115656512841   -0.09134831482290   13.57102153901076
H         9.85354273149587   -1.58422675092446   12.74354159998449
H        10.32677977995741   -0.56477072310250   11.39123325162118
H         8.63694389781981   -1.06475125499123   11.58278137270346
H         4.35480202958051   10.76898739003260   10.71862038546655
H         5.42397390973148   11.14299520751487   12.07602370995899
H         5.36633843757368    9.50622890958583   11.42162797366065
H         2.28410361226769    9.32610493311174   11.10055608284580
H         1.94362236184689    8.69285490776139   12.71498842258497
H         3.31074775467000    8.06504608569739   11.78776381197044
H         2.37575364260816   11.61740869150025   11.90963705609677
H         3.40334561374331   12.10881843295754   13.24948009502477
H         1.97515546763344   11.09585393872413   13.54124789109589
C         4.93141636153286    3.61196360597851   17.42300777083116
C         4.89205971034827    2.28091170116307   16.66642392830996
C         6.15768881250255    1.49074356042505   17.02571440677470
C         3.64416846021958    1.51225116351716   17.12527902419012
C         4.84566631393944    2.47453946490544   15.15770436965215
C         4.66764379049686    1.34831183076720   14.33337177713024
C         4.57753657767802    1.38937498906028   12.95251342705405
C         4.29113043463393    0.19175731062134   12.06764523660231
C         4.22599065733567   -1.11868945578290   12.85454398798610
C         5.38518666116120    0.07983938379593   10.99875982355811
C         2.93609977403157    0.42741850810723   11.38437842002847
C         4.72407644136076    2.66087148604797   12.39981039492619
C         4.93926881500619    3.79698917195831   13.19347543914806
C         4.97564777893023    3.72180476839823   14.58052958905987
C         4.92961918738795    4.39700822349842   11.14419331379311
C         4.86189878506679    5.13581127137168    9.85634211392173
C         5.60595670826966    6.36131721152535    9.71114676526158
C         7.33825282989082    7.82010981203815   10.30639388596294
C         7.52693910173745    8.41824149384455    9.04604873880103
C         8.46314764289082    9.39855392319278    8.85782431611974
C         8.72574169936428   10.05262618680361    7.51024815677967
C         7.81966477029100    9.50294090373822    6.40496425305064
C         8.47027941003459   11.56183816026989    7.62909146688397
C        10.18391385705032    9.80164626002344    7.10049822352844
C         9.22921958814446    9.80708296291496    9.97100019146704
C         9.10096438579877    9.27547824061511   11.22561999224610
C         9.93513018089720    9.73992158476100   12.41070492499571
C        10.99231207344132   10.77746614830527   12.02034699900799
C        10.65706405412430    8.53255917886179   13.02451103925869
C         9.00018026213385   10.37161977883668   13.45204399647718
C         8.10750519319043    8.26471988185318   11.44248553419410
O         4.70457935376545    3.07295524540360   11.10744090269600
O         4.18024087543639    4.67120864039820    8.94724501880292
N         6.51790427156711    6.76224523918042   10.54473447181490
O         7.86531975812771    7.81013455701257   12.60750842176006
N         5.07881880878011    4.87661236592788   12.35063697944866
H         9.96095277777451   10.58087670726755    9.81167996999957
H         8.04398241282561   10.00775593212375    5.46745156667861
H         6.77167122708110    9.67679875195305    6.63717919834693
H         7.98211067137567    8.43757420457596    6.25853980509100
H         8.62502409633243   12.04491428117174    6.66653628462149
H         7.44615698503383   11.74411644509239    7.94756416358877
H         9.13803024329686   12.02333441610815    8.35106908675785
H        10.38242431688816   10.24910590251534    6.12880738651112
H        10.87862356814668   10.22824536859241    7.81859383171159
H        10.37621493001096    8.73275963909603    7.03420369071347
H         6.94799017433979    8.04814324758602    8.21730733438582
H         5.38180299911873    6.88990340896652    8.78397593085883
H         4.58037326152100    0.38995178817842   14.81532837184696
H         5.09303192937626    4.62700797071794   15.14849448440695
H         3.63331454067999    1.43883373686652   18.21033058410588
H         2.74350365000158    2.03255877554776   16.80634979174361
H         3.61894079381976    0.50383335877963   16.72269713049397
H         6.18699722357538    1.30427126217707   18.09676770701478
H         6.18840491264423    0.53447753378795   16.50992391091669
H         7.04430731373476    2.06117910606878   16.75686650578057
H         4.90797613809363    3.41731903227097   18.49307143152329
H         4.07342381105748    4.23215278783821   17.17286363481065
H         5.84606849248146    4.15838662838970   17.20777292835714
H         2.68653487166083   -0.41977635006642   10.74977857639134
H         2.96610604238472    1.32038711005035   10.76621628700757
H         2.15106391692410    0.54559430705586   12.12886165252649
H         5.20204282066430   -0.78774470978578   10.36861537034727
H         5.39852308563167    0.96331795675705   10.36898973489991
H         6.36444829061862   -0.02561673681786   11.46082922479180
H         4.03738027155733   -1.94129162253511   12.16828734008985
H         3.41831636176851   -1.09871417269048   13.58246218250238
H         5.16378134483800   -1.31882254350259   13.36855998616191
H         9.57229836234757   10.71023146721217   14.31336685632099
H         8.47949341486275   11.22538487819648   13.02226547760360
H         8.26232602972338    9.64799056199163   13.78541047225610
H        11.25691511791539    8.84756922629875   13.87576837183062
H        11.31337010180975    8.07115681013706   12.28863486140401
H         9.93755442356170    7.79320403948264   13.36330378813780
H        11.57163798713797   11.04579956081110   12.90146101201923
H        10.53253804012725   11.68497381590313   11.63533332508855
H        11.67867832555140   10.37837668682972   11.27650105106393

