60
CSD_code = CAYTEC | q = 0 | S = 0 | Stoichiometry = C24H33NSiTi | MND = 12
Ti        0.27167298014436    2.28134590914872   -3.26667033753142
Si        1.77424545178158    0.08278064035783   -4.69564281313037
N        -0.98754930266647    3.57737373085825   -2.79729286365427
C         0.78220897648767    1.55031657929402   -5.37484479790967
C         1.08264044250588    2.95135261891051   -5.05802497469309
C         0.06791123006297    3.75663366816435   -5.65097560219268
C        -0.83975789649527    2.91273531199683   -6.28850446056024
C        -0.42284783044755    1.57334336620949   -6.10811167519213
C         1.16490062503324    0.25190546399846   -2.89583728503615
C         1.76771255118954    1.13644717568246   -1.94877815124402
C         0.76184966595298    1.63324579171990   -1.07841994741424
C        -0.47928935243159    1.05946633628573   -1.46636621087053
C        -0.23982167275422    0.24113076541307   -2.59759531094146
C         1.92842682027245    3.34696262974573   -3.95318250307872
H         1.98922169226523    4.42679823476308   -3.78471294815347
H         2.89812450338017    2.85913356386397   -3.87100728279283
C         0.00106074887162    5.24951503654588   -5.57802351980705
H        -0.55988381339919    5.64748782391880   -6.42078675712051
H         1.00167618141790    5.68137558947298   -5.59444938846195
H        -0.49475047426861    5.57156802754185   -4.65680864587103
C        -2.05839141375990    3.35312087846876   -7.03806067702862
H        -2.55559286916536    4.16771095174794   -6.51317621365151
H        -2.76346711138747    2.53273608395495   -7.14994597389678
H        -1.79002247173103    3.70632248622728   -8.03580291035849
C        -1.11626510960236    0.40245509766848   -6.73287747473905
H        -2.12482314415238    0.27745381873318   -6.33318085743838
H        -0.56083075970964   -0.51438820098397   -6.56679579799993
H        -1.20891162662968    0.55583962249214   -7.80904667762425
C         3.23461704430400    1.30682373775429   -1.68525766402454
H         3.50873787419887    2.35882880015251   -1.58463847163395
H         3.82963551316073    0.85710172493483   -2.47373501376304
H         3.49049751239010    0.81123032406923   -0.74542947383907
C         1.00241643361428    2.49035430246084    0.12783816182714
H         0.09824927925517    3.02831230783617    0.41079638286408
H         1.79624447499690    3.21444945566434   -0.06306630260015
H         1.30836159717307    1.87228237310340    0.97567678330117
C        -1.78017668099473    1.20627709067456   -0.73194195833088
H        -1.78266480768165    0.56964654156875    0.15652219611092
H        -2.62125677761559    0.91704834741997   -1.36067912422075
H        -1.93551902134625    2.23649527492703   -0.40846217158858
C        -1.31065042230259   -0.56440677278336   -3.27559909692449
H        -1.78462103231915   -1.24086527627977   -2.56041615492409
H        -0.89811002162491   -1.16193251521872   -4.08257166223721
H        -2.09088810005358    0.08555313662365   -3.68810311135981
C         1.49571494124722   -1.66910906865808   -5.42239119734690
H         2.22547560624951   -2.34854524931174   -4.99460369819759
H         1.66016761758537   -1.65237243422404   -6.49424370745109
H         0.51721398443272   -2.09727101198251   -5.24261771134966
C         3.65219496851043    0.30315489469657   -5.02520965954049
H         4.02715095168086    1.29915826692143   -4.82074915087385
H         3.84726510760608    0.09721228977735   -6.07317832466393
H         4.23620369239248   -0.40585538900210   -4.44672114826893
C        -0.87206053898458    4.70619664537832   -2.04624721316214
H         0.07711687556731    4.97338141372691   -1.59829311178943
C        -2.07880485944520    5.35982496637918   -1.99621331050626
H        -2.29424834946999    6.27786684334649   -1.48272623013064
C        -2.98347417882177    4.59044206852886   -2.76098617042371
H        -4.01996171925624    4.80899772730746   -2.93674038867904
C        -2.27729538950767    3.51075057375275   -3.22882689324710
H        -2.60677859571410    2.68799960826069   -3.85586334463245

