69
CSD_code = CAYVUU | q = 0 | S = 0 | Stoichiometry = C22H40P2PtSi4 | MND = 6
Pt        3.77379732431355   12.86665876422126    0.50761632634851
P         4.80046609084439   14.23084968267460   -1.25764733225457
P         2.89307224149136   11.60749560719920   -1.40716582718062
Si        5.64563723160556   11.34977224252465    0.58158950291498
Si        2.68975073168874   11.44242652101668    2.10338466310835
Si        4.72475330135756   14.19423103868788    2.26335612265595
Si        1.89751854664093   14.37965179380531    0.52144972020224
C         5.13730310010718    9.93859502935317    1.74863631477380
C         5.98891760351058    8.86978389969436    1.98182458568294
C         5.64193752653943    7.85549756804833    2.85557334747904
C         4.42441430570888    7.90711126866815    3.51451562031755
C         3.56704808181128    8.96816237204416    3.28738662999448
C         3.90636649709122    9.98829832377623    2.40667701452466
C         3.47762309155725   15.62315801582999    2.56283740503622
C         3.73928941129609   16.58540128156865    3.53081034949419
C         2.85910842398468   17.62786698730122    3.75670085010860
C         1.69697467088211   17.71931217819807    3.00814418916099
C         1.42734724730529   16.76278203541008    2.04645955980996
C         2.30222714938447   15.71288459186041    1.81371946244212
C         2.10700946565798   12.11540558358062    3.81351078394316
C         1.06010295159960   10.63076846413119    1.45250189574619
C         6.39174263045264   15.05047236722343    1.78755548480317
C         5.18634728844396   13.41639301006551    3.96612831217135
C         3.97826200799002   13.71551242673164   -2.82732095185341
C         3.84120573521662   12.20339729058307   -2.87383871481723
C         6.55968439598452   14.00464423844988   -1.72544155900324
C         4.62303240443576   16.04680754749396   -1.43733247403800
C         3.08406080765713    9.80310291088380   -1.66914959324312
C         1.17842791992780   11.86774419433400   -2.00516871451069
H         7.00381093167170   11.74280166267027    1.04692785758076
H         6.07152098586521   10.62499797279938   -0.67236656974015
H         1.57478557455904   15.18226827139643   -0.71563882688217
H         0.50657495308360   13.96066470847780    0.84617236583632
H         6.94051509414284    8.83843214712121    1.47005251558275
H         6.31757836694802    7.02883701547365    3.02795999021906
H         4.14701291071696    7.12173122612938    4.20425950872518
H         2.61940815344321    9.00942969608710    3.80605866847049
H         4.64335172006009   16.51283224828605    4.11916479954513
H         3.07570998079228   18.36793026346182    4.51490051419499
H         1.00396737234697   18.53176220451198    3.17899435535484
H         0.51894181320739   16.82498651295155    1.46390391270104
H         2.80836923538126   11.85668073598647    4.59716813481716
H         1.14647865976829   11.68189499376033    4.07015554757321
H         1.99171768121104   13.19362014096454    3.80588371550770
H         0.27664323683367   11.37491848445076    1.35339583177011
H         0.72174090001514    9.88266845504436    2.16253997034068
H         1.18453091908472   10.13698567339047    0.49489724922204
H         7.18504078990448   14.31594164755131    1.69462487313221
H         6.67366575599980   15.74856596055429    2.56954092958048
H         6.33298525925765   15.60877420961796    0.85958530603684
H         4.43428957457516   13.63463455937200    4.71432282936589
H         6.12923912459348   13.82535491739193    4.31273371709377
H         5.29677934645148   12.33954148700172    3.90225407364481
H         2.98947136927643   14.18616501985619   -2.84743851299811
H         4.55667935003109   14.09113007503236   -3.67935733316681
H         4.82931619680316   11.73237385899522   -2.83728804947130
H         3.33598531724312   11.87539286860973   -3.78970927632152
H         7.19442551409098   14.34731201694339   -0.91168603093444
H         6.78801026068868   14.56706506097959   -2.63185551664403
H         6.75872214414704   12.94565329323242   -1.88132026086599
H         3.57246298571711   16.31250941629416   -1.33436082318061
H         4.99205406085882   16.36161427984806   -2.41442469761610
H         5.17975880062559   16.55854009730798   -0.65529810085896
H         4.12378384177911    9.52857020728006   -1.50028236331417
H         2.79112304738801    9.54153050086128   -2.68687119309460
H         2.46948770127991    9.25282404249769   -0.95996626832435
H         0.47808389827777   11.48596451938930   -1.26607648683807
H         1.02495331411001   11.35586889836962   -2.95620855566442
H         0.99419567327304   12.93464341468780   -2.11986077423432

