73
CSD_code = CAYWIJ | q = 0 | S = 0 | Stoichiometry = C37H30O3P2Pt | MND = 4
Pt       10.77014962216476    7.25253774007214    3.19280961160797
P        10.27655868684605    9.06136202748668    1.91050114332480
P        12.68234861593462    8.01768870265103    4.18044733006695
C         9.66941258881066    5.11630893990601    3.46577920090190
O         9.24846232452513    6.09327862089763    2.68209690767158
O        10.79107707887794    5.46629491467214    4.06876914261118
O         9.11347645706889    4.05601643270430    3.60579286218355
C         8.60736660560992    9.06300815580720    1.19457990055218
C         8.26271830300134    7.94472283442428    0.43866055202224
H         8.97869794851223    7.14278887488191    0.32279778217978
C         7.00538976510919    7.85493372876073   -0.12564950340316
H         6.73495644301681    6.98364201564385   -0.70276502037622
C         6.08777540108136    8.87757533876184    0.06095617204614
H         5.10231812697161    8.80470082182160   -0.37494542567677
C         6.42856077319753    9.98880332268329    0.81370781287864
H         5.71108093342334   10.78276232434434    0.96263721614829
C         7.68582357777402   10.08588211753604    1.38494350408124
H         7.94739758888726   10.95087523645484    1.97885341131722
C        10.36966799667647   10.66525997562139    2.76274125843977
C        10.89354149792537   11.83510200116567    2.23174908150174
H        11.31305897190092   11.83936758719089    1.23667773348483
C        10.88307693324425   12.99533346297658    2.98729961344124
H        11.28904168742187   13.90632016232361    2.57289173709294
C        10.35504618175559   12.99364529517848    4.26692080356151
H        10.34619412280582   13.90419330548065    4.84713679066853
C         9.84314825799540   11.82349327915668    4.80656951562974
H         9.43771265236494   11.82005903774573    5.80734889010856
C         9.85631653149729   10.66338117476878    4.05819568493655
H         9.46528564405694    9.73356592568434    4.45934953569406
C        11.30884370128858    9.19465373221958    0.42010218904585
C        10.99418519983786   10.05451901902986   -0.62785653471866
H        10.10646804447020   10.66959296100566   -0.56928668656767
C        11.80759982523084   10.10202347106088   -1.74569707395537
H        11.56567435521014   10.77094298572952   -2.55854717627777
C        12.92608388980581    9.28716280156800   -1.82983658989375
H        13.55554539160990    9.32688582182400   -2.70633809620538
C        13.22739185861757    8.40961134334455   -0.80056064760301
H        14.08747518525703    7.76048936993462   -0.87431243763004
C        12.41802031304321    8.36123265731675    0.31999736073602
H        12.62464170570000    7.66318857315144    1.12761118317194
C        12.59034145118846    7.61911543301208    5.95056936753430
C        11.32484721700929    7.47008775207648    6.50832612701521
H        10.44970662774137    7.58474200121055    5.87464421142352
C        11.19021248200964    7.15068513780376    7.84661706808254
H        10.20779900456957    7.02413437672925    8.27642532438953
C        12.31947668919920    6.97786241325558    8.63086293592885
H        12.21665511515752    6.71780521435699    9.67401595426185
C        13.58185395233626    7.12597837196209    8.07801002390337
H        14.45999391179190    6.98304916727331    8.69072593872757
C        13.72226799926532    7.44621308192811    6.73979343248962
H        14.70595767483928    7.55192968731586    6.30367343391975
C        14.15850747450309    7.11255085314518    3.62219010555095
C        15.44888281538639    7.63042205866916    3.68151374248485
H        15.61573184445436    8.63263886871563    4.05149704391759
C        16.51801189966318    6.86081764335255    3.25803458908467
H        17.51921143106977    7.26413967050172    3.30516323238940
C        16.30922017891152    5.57797622908802    2.77747294447251
H        17.14861767312984    4.98358640296054    2.44801197522092
C        15.02595847044721    5.05781251530307    2.72178572978447
H        14.86225912006052    4.05688287980832    2.35167594783014
C        13.95234667307574    5.82161683476942    3.14143553071220
H        12.94610165664851    5.41890919462625    3.11697254712894
C        13.22996778136501    9.75600057873046    4.16792620884621
C        13.76149752663743   10.28562075556801    2.99441598956830
H        13.86726296362851    9.65180056570457    2.12455195565289
C        14.16183023383740   11.60672442084011    2.94538663673702
H        14.58375315783406   12.00698044143176    2.03520953710656
C        14.02214268013686   12.41623513257949    4.06163160828649
H        14.33830343774865   13.44793966124465    4.02430151384231
C        13.47423418405186   11.90084866491354    5.22359914871176
H        13.35863798232986   12.53139844279739    6.09266742635107
C        13.07610577759939   10.57705550526558    5.27859461098378
H        12.65151212384081   10.17473395007023    6.18726942285955

