47
CSD_code = CAYXAC | q = 0 | S = 0 | Stoichiometry = C22H19NPReS3 | MND = 5
Re        7.44946268498064   12.92187079551965    3.32714588553657
S         9.26641972550151   13.55196883220515    2.01354067163312
S         6.00225611817779   11.26719932672113    2.55455121472314
S         7.43990901729018   13.47517762539882    5.58961618964423
P         8.77896146132336   11.17425952020353    3.96765078101325
N         5.63455519770558   15.30366349143021    2.40457569850292
C         6.30894662956648   14.42291484038871    2.75259390222566
C         4.84405381660523   16.32886876160140    1.86733422654191
C         5.71427091200145   17.21870734190032    0.97934926476961
C         3.68211759837757   15.70979434240013    1.08994683109744
C        10.53696580115250   12.33660452953971    2.26430635721825
C        11.72506858021946   12.50235869107759    1.56366377195096
C        12.74803811964668   11.58402651124904    1.70700149282540
C        12.59455432001890   10.49198319147059    2.54688822060788
C        11.41551870239216   10.32002626612346    3.25038996073706
C        10.38195203572533   11.23728399621633    3.11963499597828
C         6.74973701907383    9.70238420246173    2.93824076874804
C         6.04740206643599    8.55703882356386    2.58491327185129
C         6.57227070400241    7.30890955176064    2.86238923877980
C         7.79970559509575    7.19172490028981    3.49573874883352
C         8.50658605124644    8.32697945638364    3.85082167231614
C         7.99308570468162    9.58666383473855    3.57461801538448
C         8.44938562263748   12.27381453560814    6.42218409721550
C         8.60203884286826   12.41159118197666    7.79619337982531
C         9.38065088182321   11.51289411356953    8.50083825270413
C        10.01620194587723   10.47168114061164    7.84243081428219
C         9.86981698931085   10.32625089464022    6.47425446896102
C         9.08677180824931   11.21872261560565    5.75513407320634
H         4.45490235852315   16.91475761591069    2.71099065756190
H         6.54263956852140   17.63011334254534    1.55090449567930
H         5.11970711226428   18.03606167159142    0.58020775084625
H         6.11946433051064   16.63815797989450    0.15389468960928
H         4.06259640718144   15.11528702558373    0.26269151431625
H         3.04078645092725   16.49441126071247    0.69755066543061
H         3.09466231881773   15.06349471101495    1.73751228296919
H        11.83196137183922   13.35435988752274    0.90954790931175
H        13.66881215120689   11.71894625758150    1.15935472077157
H        13.39312430948034    9.77321684674103    2.65452328004603
H        11.30355306265808    9.46510577849457    3.89953048200807
H         5.09097510964620    8.66026358122647    2.09525493986713
H         6.02057820403956    6.42288988829953    2.58575005951775
H         8.20700796342353    6.21593256763330    3.71449828557842
H         9.45955634388763    8.22610112045959    4.34726387917846
H         8.10551787259020   13.22797070251423    8.29834280485240
H         9.49444175570406   11.62577663261526    9.56867165447289
H        10.62672163979668    9.77237311991420    8.39397649919619
H        10.37168771699446    9.51521669508299    5.96908716167423

