45
CSD_code = CAYYAC | q = 0 | S = 0 | Stoichiometry = C24H16FeO4 | MND = 7
Fe        1.42744562671140    1.76994327240769    4.18351898387229
C        -0.23246823346205    1.89425040524258    4.76866406301288
O        -1.28864229270647    1.92768361220373    5.21395633965446
C         1.90687877609481    2.66643801999693    5.62812271992511
O         2.18321122846128    3.19494912803495    6.60784365939057
C         1.81872122165047    0.06601509807128    4.61762633915865
O         2.02512648891727   -1.02537360150467    4.88562676946535
C         3.75636954797877    0.80126596756089    2.36040861942137
C         3.46178351318124    2.04989495227937    3.01426013868239
C         2.47546030998635    2.98729893947498    2.60780033725572
C         1.19063301843388    2.59677071026783    2.19762747097963
C         0.81773347796599    1.20771061464512    2.17130835386532
C         1.53103759542571    0.17736904732041    1.30311260704124
C         2.97211646345585   -0.03294371199998    1.59904421077853
C         3.77360711099860   -1.16216908819567    1.28859565481189
C         5.00564007395601   -0.93025214808762    1.87484839753341
O         4.98503542910680    0.25900194874121    2.52871533352838
C         3.31670231070477   -2.35117746677362    0.56907232436347
C         2.69919933995377   -2.23508090993150   -0.67239295749473
C         2.24451222317255   -3.36033850719184   -1.33599958390710
C         2.39178495290500   -4.61233785807029   -0.76401004447081
C         2.99859430997355   -4.73558138709194    0.47571349042023
C         3.45797025736737   -3.61434494391906    1.13975270366588
C         6.24386651705440   -1.68293378955068    1.87047949523385
C         7.19875881298480   -1.44251208369641    2.86159222369385
C         8.38572551284894   -2.14741109660786    2.87669522375061
C         8.64275629064990   -3.10116135802100    1.90514668945281
C         7.70730268255767   -3.33659636564152    0.91004248982309
C         6.51909329218010   -2.63334361886365    0.88520881984794
H         4.33881784071279    2.46892087319561    3.50090117697115
H         2.69067927694303    4.04519831034713    2.72231350590026
H         0.46339499491941    3.36604649460632    1.95344145014479
H        -0.25723442332107    1.07733677901571    2.02472238094072
H         1.40984797266426    0.50346288998536    0.26100438002810
H         1.01769890139693   -0.78479845997280    1.39312762168739
H         2.59516306674220   -1.26016082341328   -1.12593971951541
H         1.77376451439092   -3.25931245660232   -2.30321268537696
H         2.03473063934208   -5.49003197155387   -1.28221366148730
H         3.11217505865383   -5.71029839024103    0.92707566854560
H         3.92977083032894   -3.70668820716639    2.10699263702515
H         6.99318811746692   -0.70198817972184    3.61977836857161
H         9.11409512933592   -1.95470145735671    3.65088682653901
H         9.56979379460770   -3.65483258570789    1.92000364214377
H         7.90831996758662   -4.07074408152870    0.14356592551879
H         5.80453845972090   -2.80864251498469    0.09627160960716

