62
CSD_code = CAZDUF | q = 1 | S = 0 | Stoichiometry = C21H33ClIrN6(1+) | MND = 8
C         2.11558374217905    3.98676402992038    6.03414822981363
C         3.26412712159601    4.61119121978846    5.54088033246141
C         3.95834007958277    5.81920794001137    6.07285480658780
H         4.72103395538234    5.52389783776097    6.80333177261678
H         4.45869821919071    6.35880325302112    5.26573785866710
C         2.93561471445407    6.68748512785654    6.72491082779312
C         1.72936723205788    6.30878957759155    7.32103539362746
C         4.72823008250033    4.18950887807355    3.54057317598128
H         4.72465789968595    3.40988964075922    2.78182669627323
H         5.66677130112738    4.15757134347666    4.09372032962832
H         4.62701224850013    5.16047583194266    3.05426742086214
C         0.78307126272523    2.08698153821242    5.07056351748916
H         0.07454399562916    2.46131977806123    4.32587425712265
H         0.29419938783339    2.11522139531302    6.04328773250938
C         1.23925571486574    0.68320791445906    4.70540081475364
H         1.70704582921977    0.67975182392148    3.72553758575705
H         0.38052333520205    0.01932964003211    4.68269964671147
H         1.95323928299337    0.30571200191312    5.43316767633198
C         4.03475891649533    8.91146802995896    6.32176448199274
H         3.76658224085843    9.92507483932723    6.61196730048074
H         4.11815577379789    8.86167702936545    5.23541428555532
H         4.99097719995511    8.64293084603921    6.77053799067182
C        -0.12373808125507    7.75247354756225    8.22612418212649
H        -0.00950316954475    8.46423039238286    9.04648092530537
H        -0.51254776388715    6.80385107098609    8.59203290604611
C        -1.05489622036135    8.31441100138679    7.15768208899079
H        -0.64915492489068    9.23299079110497    6.74287446186310
H        -2.02364043890513    8.52620571119871    7.59883132938052
H        -1.18758202434373    7.58377276256869    6.36383850294170
C        -0.08674303295945    2.78819946247898    8.80398711401660
C        -0.34036275352859    4.04843671408017    9.47585380095194
C         0.88637808470670    4.55121474775251    9.94758020781991
C         1.92996580804247    3.66181063657191    9.49150797653101
C         1.29455041941006    2.52385844159343    8.86987778180798
C        -1.17991388909498    1.87415205770061    8.35579982980092
H        -1.77113111497854    1.56372777906941    9.21834143636200
H        -0.78941909517568    0.97985888099832    7.87549698956566
H        -1.85074133689607    2.38071788241113    7.66228429969196
C        -1.71704179569402    4.55038093572404    9.76375200184497
H        -1.69955878646018    5.50188284330767   10.29003762806346
H        -2.24607232214947    3.82770222034418   10.38618200660758
H        -2.28642116975630    4.67065290206127    8.84224165970251
C         1.10791809859445    5.69126646253444   10.89003226815421
H         0.22074064117211    6.31130807406930   10.98631330969796
H         1.93901951492958    6.32048513532866   10.57490471626438
H         1.34991920809214    5.29337421950775   11.87656214492111
C         3.34613018863383    3.69372180313953    9.96974241665814
H         3.41780751830827    3.19396788873385   10.93721227131141
H         3.69631252689893    4.71589359929761   10.09377043939502
H         4.00723805947509    3.17884685422762    9.27651845623759
C         2.00020047047675    1.25302249161943    8.51957728229188
H         2.25834552163343    0.72485191025806    9.43859330755337
H         2.92514187907435    1.44306485075220    7.97695898325619
H         1.37187743576309    0.59860912645805    7.92136475697267
N         1.89519456557434    3.00434893868487    5.12258040097754
N         2.78725426976804    2.98007261782707    4.16966095237687
N         3.61914517642833    3.95012941997450    4.41800587799279
N         1.18164997825550    7.50160303600006    7.66821136929584
N         1.93586933601240    8.52235879141818    7.35848589990167
N         2.99856619919091    8.03503484604807    6.78562680722544
Ir        0.99101286922924    4.44068528596934    7.67306550931290
Cl       -0.76075938564388    4.92456435004291    6.12080356709202

