65
CSD_code = CAZFAN | q = 1 | S = 0 | Stoichiometry = C22H35ClIrN6(1+) | MND = 8
C        -0.78955020656994    2.04470629885803   10.37090515789523
C        -2.15879723887908    2.02799119819592   10.09956897520296
C        -3.11480771551015    0.90144035134200   10.23716549209347
H        -4.13970790499687    1.27105951940981   10.20938955966869
H        -2.94170521070589    0.41209635919867   11.19514749784005
C        -2.92620578379635   -0.12850723371999    9.11919604227799
H        -3.76749245465524   -0.82633028219709    9.15028476100241
H        -2.95559596826075    0.37512713943577    8.14724673596859
C        -1.66173204061616   -0.91281668819069    9.21939974295314
C        -0.47024928119096   -0.77329172667239    9.94501571627619
C        -3.76124576885464    3.76857682627213    9.23824966897034
H        -3.61996712516607    4.80279372861190    8.93169533564897
H        -4.47307811100274    3.73155649486507   10.06336442707613
H        -4.15081616404979    3.19178004701432    8.39972944491223
C         0.86129522608336    3.94956153801626   10.10935272120579
H         1.53763618462972    3.28575385102982   10.64439100972862
H         0.74989036728908    4.89572411403201   10.64395159786298
C         1.38672755354342    4.20063343703506    8.70123571448169
H         1.54874977736869    3.25341981869946    8.19423851938783
H         2.33457694038519    4.72588264229998    8.75954859779696
H         0.68322880068514    4.80371472184913    8.13377940415123
C        -2.47676791966479   -2.63069553790818    7.57242887020385
H        -2.00998594161882   -3.51379068856907    7.14138527346732
H        -2.72111851722778   -1.92341267992792    6.78001195052786
H        -3.39290260586740   -2.92213382874251    8.08765256004493
C         1.55962256031611   -2.30488959985502    9.94233590680467
H         1.46877863630978   -3.29577288596138   10.39489484147282
H         1.94753530592227   -1.59395255482537   10.66761959455042
C         2.47868929884957   -2.36531156271802    8.72893415547704
H         2.06862348025901   -3.02838901273070    7.97269377049903
H         3.45235772818095   -2.73650548769484    9.03317132331273
H         2.60281873572073   -1.37031643438022    8.31032072429966
C        -0.48870878451412    0.27734512638931   13.28435975733665
C         0.16061294043945    1.56468189528265   13.31065269962479
C         1.52874680772331    1.36118246338775   13.03502152157540
C         1.76630520553995   -0.06362675799377   12.94468595927747
C         0.54054143652076   -0.72689770282199   13.13080577012426
C        -1.86700266416005   -0.00480921529639   13.79221031798028
H        -1.83034920514371   -0.16587443333096   14.87107156774909
H        -2.28050098560127   -0.90283457593264   13.33749818948075
H        -2.53922717863058    0.82930255663554   13.60384387472490
C        -0.49437024943342    2.85050257283462   13.70245116853888
H        -0.50463404082281    2.93011548191671   14.79049907806612
H        -1.52502700749424    2.89654098231818   13.35515214621170
H         0.04274435674673    3.70998358138011   13.30799082144695
C         2.62774374594328    2.37079498972890   13.08089326805412
H         2.24097581473217    3.38698226447908   13.07437695528911
H         3.30671012703338    2.24662616829385   12.23791897081225
H         3.20879540435581    2.23517702060338   13.99439113276775
C         3.13561910862018   -0.65403061585986   12.86927976676063
H         3.10722887084393   -1.73937974042769   12.80723440504511
H         3.69664642169032   -0.37963647318831   13.76369946902632
H         3.68221930637828   -0.26715033339851   12.00902558049556
C         0.31526987540833   -2.19193766019243   13.32902677177211
H         1.17853401577108   -2.77523657991894   13.01996230948478
H        -0.55648081075947   -2.54274768814455   12.77846876164350
H         0.13793113458722   -2.38589613225501   14.38792849664396
N        -2.48456325468144    3.25957511619621    9.65057776982298
N        -1.44047163783668    4.03690143494387    9.63257617401933
N        -0.43578560822908    3.31904998665194   10.05893273358167
N        -1.54206000513480   -2.04994485607342    8.49076906017044
N        -0.39855293449761   -2.62609463706523    8.70265023736346
N         0.23562468623222   -1.87523096688503    9.55742212882675
Cl        2.02409033099375    0.93254539596548    9.61757073724158
Ir        0.33249014045695    0.60241944968974   11.27024730598419

