53
CSD_code = CAZHAP | q = 1 | S = 0 | Stoichiometry = C23H25IN3Ru(1+) | MND = 9
I        -3.27108441391832    1.72248350769431    9.76258032082959
Ru       -1.66287378053379    2.22003587427618   11.84240421285851
N        -3.24036519631583    3.11211732719562   12.76229850051977
N        -5.06487246620402    3.06866910237447   14.03812800705043
H        -5.81492535487692    2.71656231616463   14.60921637931684
N        -2.98796610880678   -1.65741202204900   13.21838244570002
C        -0.22349769630148    4.07611241784987   11.62509369744725
H        -0.35624086389944    5.14859493018571   11.54529834023898
C        -0.14995888699975    3.48120141877413   12.91613942166406
C         0.21159947090867    2.11790722721804   13.00947854908530
H         0.41610568933476    1.68436859061909   13.98382595525957
C         0.44640991197980    1.35210537475482   11.83818353272496
H         0.83072156388280    0.34363756854060   11.93666518836156
C         0.26017835225022    1.91268977462884   10.56602932360141
C        -0.06365892961048    3.30394268776045   10.48317138667298
H        -0.11458439405801    3.76753692678019    9.50283297214589
C         0.58161479778180    1.16299845483889    9.29392186744549
H         0.01183710607683    1.61905091343049    8.47649858176466
C         0.21271617341172   -0.31845297102206    9.34710208235823
H         0.83788571752643   -0.86345816760286   10.05160506449166
H         0.35738302541923   -0.75907147689641    8.36478917527442
H        -0.83498388315847   -0.43891627106243    9.61698795120328
C         2.07727717580213    1.34191527002810    9.00358916607333
H         2.33654894416076    2.39560364586271    8.92500985563989
H         2.32921946851752    0.85604885012618    8.06527396372224
H         2.67733572406255    0.89678845730103    9.79527048032426
C        -0.27631484920976    4.33234627580624   14.14330901570915
H        -1.03361549671064    5.10510881902352   14.01300361323297
H         0.67600196145100    4.82896365356085   14.33805478932186
H        -0.52943541400385    3.73277254147834   15.01593670372780
C        -4.04360111916230    2.34568062964586   13.50848654520609
C        -4.93460164725487    4.35498864366254   13.58343804991895
C        -3.77966376311371    4.37006608135969   12.76286424185984
C        -3.41644735742536    5.53621487995449   12.09048364128196
H        -2.58104017424584    5.54638702976362   11.40944431651337
C        -4.18880810603706    6.65784186816807   12.29093334442471
H        -3.93696258445193    7.57289352806668   11.77842540038257
C        -5.30529121155078    6.64137556453638   13.13448691155005
H        -5.87750689066745    7.54667228924632   13.26084527381199
C        -5.70195158447855    5.49301303752172   13.78641792786073
H        -6.57700757514108    5.47280983943907   14.41575334870434
C        -3.73558240539360    0.95578852155128   13.54299314884386
C        -4.45623095215275   -0.06505921374701   14.16384313126388
H        -5.33016491917102    0.14080183531368   14.76039273119955
C        -4.04947953570674   -1.36571967304309   13.98572008057130
H        -4.57873960656913   -2.18979518266170   14.43662172030470
C        -2.61489247817242   -3.03338409733148   12.97730831377537
H        -3.21103184275535   -3.70196067861289   13.59370304175240
H        -1.56055872256680   -3.18550498532074   13.20888868522476
H        -2.77900888519662   -3.28374889374850   11.92772654467563
C        -2.27687406279766   -0.68078502390391   12.62205678316048
H        -1.46358762044369   -1.01748440629925   11.99373156089092
C        -2.57792430349878    0.66025738878792   12.75455471305752

