47
CSD_code = CAZIPD | q = 0 | S = 0 | Stoichiometry = C12H28Cl2N4Pd | MND = 4
Pd        0.00001242671368    0.00012637431027   -0.00012378709040
Cl        1.85938138693979    1.16574485235990    0.70882700367578
N         1.09141061401377   -1.39703042400781   -0.78307881555546
N         1.63391065000380   -2.33531132793038   -0.19882020603519
C         1.18341430072165   -1.40560877609674   -2.23472987282527
C         1.58242501748541   -0.00509660633032   -2.71231376122475
C         2.13557527877453   -2.47646001794829   -2.75414664186329
C         1.50894340170614   -2.41916922536934    1.22841339455541
C         0.32260123926413   -3.34853650508660    1.52087525520924
C         2.81233724640559   -2.98089991246597    1.78555400210908
H         0.15817553570525   -1.61941399078764   -2.58174848786581
H         1.60087985977828    0.02184385060998   -3.79892211934709
H         0.86326342265534    0.74495818147320   -2.35400575084178
H         2.57315404363137    0.24837593603672   -2.33587495167964
H         2.15666397686125   -2.45179632784592   -3.83987147348978
H         1.81327427113192   -3.46127685361777   -2.42806883592665
H         3.13872266056643   -2.29930440777221   -2.37379607929345
H         1.30776054083014   -1.41611666797913    1.67162954100171
H         0.51156532435407   -4.33207962330519    1.09703060442536
H        -0.58980952264271   -2.94658521009599    1.07606680080930
H         0.18518622893707   -3.44557355655245    2.59462625208839
H         2.72536326217009   -3.12846073214514    2.85847186912558
H         3.62953636716293   -2.29045689157108    1.59277752955056
H         3.03777832827029   -3.93239342328045    1.31098377197301
Cl       -1.85943281156133   -1.16584647533637   -0.70872638851888
N        -1.09161010731681    1.39696619448172    0.78306202778997
N        -1.63386735534158    2.33540067207464    0.19882795980639
C        -1.18374773302468    1.40549436185609    2.23471452963674
C        -1.50869301932727    2.41931502788539   -1.22838377203317
C        -1.58262509112868    0.00494931956221    2.71231693976022
C        -2.13610615898130    2.47621881944153    2.75404301556576
H        -0.15858235435301    1.61944295292936    2.58185691225154
C        -0.32217638656994    3.34850760161309   -1.52072065023056
C        -2.81193900088294    2.98127942766639   -1.78562290737743
H        -1.30762274161632    1.41622778401894   -1.67158675470689
H        -1.60128379777165   -0.02193982290782    3.79892472767335
H        -0.86326675794174   -0.74501860287403    2.35421473138509
H        -2.57323861660369   -0.24870213650729    2.33569184059014
H        -2.15734921904984    2.45154283008555    3.83976580217030
H        -1.81390267759875    3.46108668949533    2.42802592405697
H        -3.13917629504842    2.29893463985607    2.37354995339265
H        -0.51105071227564    4.33209991350714   -1.09694939714671
H         0.59014353070623    2.94647041486137   -1.07580414883198
H        -0.18463311857036    3.44548420047208   -2.59446136521727
H        -2.72489725502450    3.12870576735550   -2.85855261185631
H        -3.62928973314424    2.29103099227258   -1.59279048701832
H        -3.03717844901327    3.93287071358952   -1.31115112262626

