36
CSD_code = CAZKEV | q = 0 | S = 0 | Stoichiometry = C11H15NNiO8 | MND = 6
Ni        5.37845088903704   16.76623533237345    0.79881826754861
N         6.71470481359784   15.59915503080700    2.08246248213504
O         6.47212720043493   18.11777067531067    1.33132513008981
O         8.42810548851873   18.71745081565050    2.14403007439828
O         4.13227566447913   16.55439343786830    2.52719008103227
O         3.96678260999697   15.17816065644813    4.27117685665866
O         4.50068126956725   15.10659669731441    0.16368426158507
H         3.62767086626685   15.32524757563595   -0.19293840606125
O         3.96488086975637   10.79320651935972    3.55824924913399
H         3.04162002476289   10.54004564994874    3.67862683183167
O         5.65372483977395   17.43138196590042   -1.29383496318345
H         6.40066945781644   18.03635398921364   -1.21538371954266
H         4.86571337413256   17.98300802668671   -1.38975092642718
O         3.64900776407221   18.40620287955745    0.51543477100415
H         4.17492329938491   19.11904005221310    0.90020811925835
H         3.17744595325343   18.01834277620490    1.26737938547580
C         7.63008583585355   17.86226569638336    1.83176956169353
C         7.96701112048821   16.35300987993319    1.95715061787255
H         8.47627517796598   16.06655227101537    1.03105280845976
H         8.64881482890759   16.17751548078228    2.79760809243259
C         4.58000039726216   15.78801858141603    3.42142038142046
C         6.16671755600799   15.65479090671980    3.42638316307278
H         6.51924258799133   16.55670891485344    3.93143546557503
H         6.41974581833796   14.77227317942593    4.01954601109353
C         6.80864695459389   14.21386607687452    1.60181844568532
H         7.54743076765192   13.65321894905713    2.19246755940487
H         7.13376853791748   14.23485495033723    0.55524420605042
C         5.46828709747078   13.53418652906458    1.71030716992017
C         4.35661125816420   14.02998231366394    1.02035144273882
C         3.11268442321497   13.44520117810628    1.19651842070445
H         2.25365822181007   13.85028764771983    0.67971389075596
C         2.95527072999005   12.36506937879569    2.04259763773828
H         1.97584968476252   11.93160500407150    2.18496599995545
C         4.05287525247027   11.85441882279056    2.72385205806492
C         5.29947612821427   12.44653272392078    2.54716650420634
H         6.13426323607675   12.04564943457442    3.09965306821668

