86
CSD_code = CAZPAV | q = 0 | S = 0 | Stoichiometry = C35H39BN6S4Zn | MND = 4
Zn        9.68608149647172    2.28469151290281    4.65713063551362
S         8.38864115185876    0.86050031439149    2.94545470658596
S        11.98359030713860    2.36082504484239    3.52722739188516
S         9.97839960311935    0.41604096538684    6.40862757018505
S         9.07967126341073    4.24829326278921    5.72843568773404
N         9.91745705392733    1.09390502236551    0.77649276402508
N        13.48255442610555    1.26454294170096    5.44501403936642
N         8.29960235023398   -1.56097167426515    5.74940123864383
N        10.85776669425703   -0.16668402768348    2.29941950592219
N        12.21385323260692   -0.21660141031308    4.45037943565791
N         9.96442143956293   -1.37893996556937    4.33723523096143
B        11.22948623063609   -0.98700941113377    3.55042569485737
H        11.76431885894881   -1.99054965761125    3.18795428805423
C         9.77740543660812    0.57816948963346    2.01401710143679
C        11.12315893708041    0.68514431361991    0.27359885937480
H        11.45846038278301    0.98321724116180   -0.69818920846136
C        11.69827842695398   -0.09097416216716    1.21911665680377
H        12.64148151025607   -0.59567252038185    1.21909030262960
C         8.95025819048310    1.88506582672536    0.09831823914513
C         9.02090390668106    3.27488202214955    0.16746442655810
C         8.06256825011484    4.00739054002935   -0.52300858447096
H         8.09661555045622    5.08560846242781   -0.47974104458115
C         7.07169289800945    3.37474910564281   -1.24888042911631
H         6.33504814650652    3.96076219830161   -1.77785853524394
C         7.01393369095731    1.99309786400479   -1.29447706862524
H         6.23180195825912    1.50192993262058   -1.85402623384222
C         7.95132120339290    1.22647034471301   -0.61921230950762
C         7.89270983518734   -0.27039874963069   -0.62958536580698
H         7.70591248307418   -0.63812825046362    0.37976486088627
H         8.83456235316746   -0.69745176332997   -0.97449165326571
H         7.09294221715941   -0.61732172756135   -1.27796828332187
C        10.06511074000146    3.96367749284495    0.98519962043031
H        11.02578165971687    3.45472192179538    0.93753388648117
H         9.75968967685014    3.98212044581125    2.03481174716695
H        10.19237354230657    4.99284967740829    0.66064781819346
C        12.54572912907459    1.08462295226781    4.49131805057236
C        13.73510709420120    0.05488843658366    6.03485050145701
H        14.43928431966619   -0.04563551154151    6.83469367440896
C        12.94790848914039   -0.85423567137716    5.41774105197983
H        12.84086100651731   -1.90519063663400    5.58741123097034
C        14.13698336665163    2.49338337344078    5.73494373533048
C        15.28621525613520    2.80617003753359    5.00696359309260
C        15.94127594946640    3.99407342079540    5.29028491461977
H        16.83099387735633    4.25406296024409    4.73623438520489
C        15.45803130247832    4.84705836759608    6.26739263333401
H        15.97563125622201    5.77119433330964    6.47714583013705
C        14.31224758600974    4.52531526744918    6.96738581767324
H        13.92879471564934    5.19941345872860    7.71841682395843
C        13.62666013701775    3.34216889743667    6.71386750729695
C        12.36179524728078    3.03513039589485    7.44678474516045
H        12.16935312780782    1.96628197204165    7.51239967082927
H        11.52311682701228    3.49560255451223    6.91797626119286
H        12.38695311304240    3.45331899873855    8.45014217174188
C        15.77132818071002    1.88233364414815    3.93185893926297
H        15.94648220137584    0.88037385120903    4.32415835439547
H        16.69513936944019    2.25383648468358    3.49706468060784
H        15.02114435647894    1.80900147509859    3.14406405059036
C         9.41769862871507   -0.86153923903541    5.45017667407991
C         8.12465926754180   -2.52178039694011    4.78866249803852
H         7.29784127014206   -3.20033531918626    4.81439745244359
C         9.15553549193617   -2.40530202302935    3.92334296478855
H         9.38536777096569   -2.96674834329804    3.04214101992733
C         7.43219023915019   -1.31332747907103    6.84513799212163
C         7.86076686930550   -1.63229849591803    8.13446205882458
C         7.00796224105606   -1.35962071541621    9.19463683241929
H         7.32610739074506   -1.59217436684667   10.19992904681241
C         5.76460876980769   -0.79626854613576    8.97537132448227
H         5.11435348397800   -0.58434756425433    9.81096954005790
C         5.34968896449897   -0.50839688120802    7.68880054307544
H         4.37586736177449   -0.07350329224483    7.51920912402345
C         6.17365141069618   -0.76277458870484    6.60019478221295
C         5.70536338684043   -0.46327530622756    5.20986587141244
H         6.51044605426391   -0.08661707192833    4.58196127274030
H         4.90960537289634    0.27660007068825    5.23103255045583
H         5.31450497862835   -1.36611951037460    4.73909468058684
C         9.20175777081843   -2.25406148300694    8.36849256528498
H         9.26691854147365   -2.65027296124278    9.37820898091880
H         9.98309795175852   -1.50477401669228    8.23923949107783
H         9.38943693433334   -3.05964726434268    7.65921363659055
C         8.15312791021270    3.53269794262780    7.12838677677908
H         8.81119545241545    2.84418017219507    7.66041764757552
H         7.92877544741305    4.38319788766842    7.77295851005873
C         6.88334818519263    2.83854852107858    6.68103720757472
H         6.34376379908080    2.44901888285925    7.54351594096736
H         7.12396463166913    2.00512230051244    6.02008403086473
H         6.24290340971538    3.53159740216215    6.13963736776425

