63
CSD_code = CAZQOJ | q = 0 | S = 0 | Stoichiometry = C20H36HgN2S4 | MND = 4
Hg        2.09711859866385   -0.28331723007547    2.12535341885640
S         3.22605461174267    1.34580565889876    0.47993508564680
S         4.36856093953974    0.50910220232747    3.06250189803313
S        -0.12258230992346   -0.61150779785481    3.39028734747634
S         1.26082946767850   -2.70705945315945    1.85087991720021
N         5.60731575396645    2.12877832260471    1.34915601945664
N        -0.94862457109835   -3.12977318587453    3.27840611514051
C         4.52734964198380    1.40522274282275    1.61096195180472
C         6.74892198199357    2.25058201813501    2.26432123313583
C         6.36675163013702    2.92624238405147    3.58028842232510
C         7.46477702944200    0.91877057202335    2.48409735323407
C         5.71294827825554    2.86475399692844    0.08972548914140
C         6.87888946919546    2.37592154346053   -0.77225228627085
C         6.83444869452528    3.08595013765234   -2.12328773485144
C         6.89883265206899    4.59862143650734   -1.93446599709309
C         5.75005059714002    5.07818284450483   -1.05209363907532
C         5.78794682075772    4.37777033156696    0.30415673081306
C        -0.03257197341094   -2.25666233532088    2.88264288517578
C        -0.93572212485471   -4.55092116549374    2.90995112095404
C         0.29827338696437   -5.27970010497755    3.43980002650232
C        -1.13316802500180   -4.76216876295374    1.40988632577026
C        -2.03900213404544   -2.70414770810082    4.15562648580264
C        -1.96950495506874   -3.37504362530880    5.52913404503045
C        -3.04398544957739   -2.77719970475435    6.43411700623386
C        -4.42618318362347   -2.95537355503962    5.81310738822685
C        -4.48152012292206   -2.30683021559173    4.43302486336968
C        -3.41506322012903   -2.90350523341432    3.51728679770064
H         7.44853826371598    2.91372475560805    1.75095442164768
H         7.27165449775069    3.15801088613014    4.13574464035846
H         5.82821373944432    3.85110008339685    3.38826122730172
H         5.74434083830096    2.28048063359725    4.19034162664476
H         6.86299338733829    0.23964509309406    3.07829206276806
H         7.68671348959551    0.44596306048270    1.53051251841850
H         8.39873269319109    1.10109800092919    3.00907275781173
H         4.79298401765400    2.66162035139925   -0.46489611075694
H         6.79619190556631    1.29660739432667   -0.91349805796415
H         7.83648795260151    2.58493367718237   -0.29160628363084
H         7.66958522491100    2.74993878984172   -2.74059550115446
H         5.90863224574336    2.82347449894776   -2.63877203349842
H         6.84997084970998    5.09412416172542   -2.90546910068806
H         7.85098938122924    4.86697401406157   -1.47036591115331
H         4.79973985761898    4.86115808026864   -1.54364141858092
H         5.81472925323371    6.15810387138298   -0.90779279814312
H         6.70781582159392    4.65465456757122    0.82273555867932
H         4.94191931296297    4.69843337213606    0.91496052612272
H        -1.80449790482944   -4.97795515643356    3.41545069257025
H         0.15685194009798   -6.35044279394394    3.31767242493939
H         1.19314755694421   -4.98729476041433    2.90101037487053
H         0.44033450475181   -5.06443624550938    4.49619660954908
H        -2.00437357580444   -4.21262596763507    1.06165446625997
H        -0.26571676259620   -4.43367467902557    0.84751156146490
H        -1.28820575294702   -5.82061150975163    1.21798975938295
H        -1.90867907220625   -1.62986936323877    4.31168774991167
H        -2.12929683700493   -4.45191226187038    5.44714082831849
H        -0.98106990388353   -3.20852319132812    5.96167387459231
H        -3.00840692572375   -3.26018544129485    7.41230317798865
H        -2.84408209745211   -1.71355136487947    6.57724393525714
H        -4.65000411383117   -4.02121405557908    5.72366837069308
H        -5.18217058302039   -2.50913787251503    6.46110632017761
H        -4.31497001636672   -1.23222562726950    4.52949875961408
H        -5.46791888271120   -2.45532791373497    3.98989822912251
H        -3.43722888918394   -2.40878131549312    2.54443534098596
H        -3.62938690042940   -3.96316988540131    3.36627113013350

