90
CSD_code = CAZQEA | q = 0 | S = 0 | Stoichiometry = C39H34BF5N6S4Zn | MND = 4
Zn        6.44029782274521    5.33406229189786   12.36589390759756
S         6.44932378910483    3.38493748780925   10.75641205893652
S         7.58536306798515    7.23826721973063   11.13810322505798
S         8.36662887271162    4.56519342131354   13.79027158616894
S         4.10612664924448    5.91392372080946   12.10936617590646
N         9.16841494930830    3.21599336614553   11.11976121051453
N         8.02738076589908    1.41819504830305   11.63279754982382
N         8.64499580655636    5.20328639024220    9.63859574948799
N         7.12323251012005    6.41104371602189    8.62785197207385
N         9.99275937783713    5.52227649101050   11.78331429686729
N        10.16790761924391    6.53826591110553   13.71394707319714
F         5.10662027123225    3.88943751556547   14.05783772892460
F         4.02547785090439    1.46848239379032   14.59612502278375
F         1.94801848693686    0.51636057295154   13.08403902587274
F         0.87328314730715    2.10708342823161   11.13518311964267
F         1.84949055555256    4.58186005045432   10.69622844455588
B         9.66931901319650    4.58084958714445   10.60609181198656
H        10.67987026407912    4.39386510362968   10.00145374599396
C        10.04178362584156    2.26362198809621   11.57818553840790
H        11.09156212192387    2.46105426720119   11.63557758511431
C         9.34331555565673    1.15129146434570   11.89720565424048
H         9.66166813390514    0.20103210343707   12.27209346772365
C         7.93617841288776    2.68479772043818   11.17815923791087
C         6.94249873257411    0.52070093151969   11.82244226853653
C         6.32143132533253   -0.03989515890974   10.70602543532411
C         5.25950270614027   -0.90802896357073   10.91782539673036
H         4.75494782334485   -1.34067374042682   10.06700758646616
C         4.84913925029898   -1.22423436067286   12.20001113177283
H         4.02084937277755   -1.89978745171602   12.34940110991577
C         5.49228623467602   -0.67321279276379   13.29267447017722
H         5.16703972289612   -0.91992055099250   14.29139369597459
C         6.54088180594996    0.22155658051000   13.12433615730384
C         7.21262105177031    0.85216790587835   14.30442201008238
H         7.37232029175116    1.91800799507483   14.14543965601551
H         8.18529774075468    0.39496511882648   14.48761547711993
H         6.60204879760012    0.72617277695362   15.19372388346263
C         6.78460779771927    0.28666361577681    9.32013436698976
H         7.87037133443735    0.23000531017328    9.24565824424594
H         6.48165533717425    1.30044820065882    9.05703140130249
H         6.34621491126184   -0.40046833877374    8.60167609257729
C         8.46918744979716    4.70726062425109    8.37214584524082
H         9.02895941587507    3.86325703907309    8.02732459206337
C         7.52683804364606    5.44672148136887    7.74513532916027
H         7.11591493144101    5.37731422948146    6.75968049141513
C         7.80326790279948    6.23959717832692    9.77941454702574
C         6.12944379840210    7.40050979274996    8.39464717773262
C         6.52944864412633    8.72632735581129    8.22356057239983
C         5.54714555786374    9.68402212039544    8.01942230896921
H         5.83632057714707   10.71627053378126    7.88953465166530
C         4.21063220354117    9.32923428443699    7.98800446426977
H         3.45680097650827   10.08750317437154    7.83836459737669
C         3.83703335794106    8.00862708479498    8.14672294355438
H         2.79378988370352    7.73326651346995    8.12552359033241
C         4.78916412468636    7.01781882635144    8.34923513992713
C         4.37119317600603    5.58922704569221    8.49450666078641
H         3.34485613169458    5.53480478891990    8.84475486501647
H         5.00313079045002    5.05248301128279    9.19897308209573
H         4.43218468580266    5.07572406456772    7.53392080239455
C         7.97823300020929    9.10350595166298    8.26182734178416
H         8.57789423979405    8.42375786380463    7.65679580116284
H         8.34566336684317    9.05510037958826    9.28721186927548
H         8.11679304163062   10.11657893634656    7.89416069177246
C        10.91920317590623    6.52456390346932   11.66291288257198
H        11.41961720388546    6.70460577486562   10.73491757145837
C        11.03195907007531    7.15693881010475   12.85281160301632
H        11.64862113359640    7.97502583996958   13.16234038934094
C         9.53276169833757    5.55615627989029   13.04409166501451
C         9.97420847379436    6.86455515161026   15.08393007998761
C        10.56817024221995    6.05900398389588   16.05476256713003
C        10.37209862929906    6.39015402388171   17.38795390361463
H        10.82030270309592    5.77745881858627   18.15563744698143
C         9.60755397823405    7.48826397235865   17.73676804549358
H         9.46036618436786    7.73167830223847   18.77821121584063
C         9.02717128470573    8.27359776651562   16.75788301651914
H         8.42566685826902    9.12605077785536   17.03560092314604
C         9.19890567439662    7.97615607990346   15.41265935968769
C         8.56559716041459    8.81363292193375   14.34730668426294
H         9.32028826918696    9.29091505817106   13.72217541179470
H         7.94221196540985    9.58615478685871   14.78870472468387
H         7.94347889191215    8.20311624259677   13.69225883429871
C        11.38027044752441    4.86423790387588   15.66176154226273
H        10.72556395854459    4.09503349877480   15.25144963052551
H        11.89720352282046    4.45378841979621   16.52465431496693
H        12.11568634333687    5.12244427997753   14.90008865096000
C         3.50304677856906    4.32038837044809   12.37247456346292
C         4.03393015873513    3.46873898163159   13.34714465161168
C         3.51798842879698    2.21277282337757   13.60573215631398
C         2.44863875982251    1.73875247821381   12.85434801315551
C         1.90183664131710    2.55429446923487   11.86713890678154
C         2.41152415683974    3.82315966206800   11.64530030682298

