101
CSD_code = CAZQAW | q = 0 | S = 0 | Stoichiometry = C42H44BN7O2S4Zn | MND = 4
Zn        5.53068630200541    6.23203328901561    8.82028246750066
S         3.80315855754074    5.73593136990174    7.05507837143892
S         5.44796934770265    8.72700506491040    9.16068961847119
S         4.00501830494793    5.56096267073258   10.75575449563448
S         7.52209884326464    5.58490592938082    7.67510018306203
B         2.09553552628839    7.88948803653213    9.08534491957477
H         1.04761073588444    8.45249632314642    9.11291146930712
N         2.78650491170084    8.18834754110801    7.74130771962257
N         4.15721444910512    8.19081669586321    6.02778312244299
N         2.95344730533649    8.40181945646362   10.26517515828661
N         4.52426314438683    9.00270842497027   11.66903912342095
N         1.85023229369732    6.37763491639198    9.25332364291244
N         1.98713943989380    4.21670986757456    9.58794500044261
N         5.61867435468346    0.24092709100830    5.95821361058122
O         5.94744083092060   -0.16229038347847    4.85597876559970
O         4.90218508941408   -0.39196356761307    6.72142501283784
C         3.56943390166577    7.41761074808847    6.96937665625356
C         2.88197526046239    9.47100099044904    7.26274506457247
H         2.33974159452047   10.27075873473669    7.72147454422496
C         3.73633521644415    9.48113896709632    6.21600022056417
H         4.07289270040266   10.27968511342151    5.58842720774928
C         5.24990381972810    7.77603233834571    5.23048182514774
C         6.45499281495915    8.45535640242455    5.35638154590508
H         6.52125421792448    9.30744842118200    6.01683293226184
C         7.56747643124232    8.00310424334772    4.67648989682579
H         8.50089626389879    8.52968988887114    4.79620347536533
C         7.50467310917326    6.86535834107066    3.87981030661874
C         6.28416141341751    6.21544844459739    3.74675777656905
H         6.21177302678844    5.33344138299431    3.12698455344220
C         5.15638177130256    6.66246396303253    4.41028362910210
H         4.21789843102482    6.14049851816703    4.30997520862700
C         8.72626265137026    6.34399853759096    3.16558560114959
H         8.49822442495002    5.33806156469640    2.79534165966034
C         9.93316835164846    6.25110222477689    4.10174039520702
H        10.72471039549682    5.66996239305925    3.63381691044955
H         9.65754408793729    5.77407020491018    5.03968068788172
H        10.32810553461076    7.23803350182006    4.32808586425284
C         9.04366903144937    7.23372531519488    1.96030869378336
H         8.19998031177621    7.26107807332427    1.27391244930707
H         9.91173304575771    6.85104236796669    1.42845046359594
H         9.25613502887104    8.25022374959973    2.28369099575653
C         4.25847178790145    8.69740005569487   10.37748761486808
C         2.39960189048259    8.50850247120669   11.51387261424745
H         1.36074945350713    8.31073245844528   11.67441826710435
C         3.36468321835303    8.87107253864807   12.38676178510125
H         3.32772804824498    9.06303263085915   13.43866357767742
C         5.78648393664680    9.29860097016417   12.22704370076000
C         6.20644289552372    8.59326106025732   13.34792418731653
H         5.57798031101684    7.81585783578207   13.75655185004216
C         7.43478331506520    8.87334383765323   13.91201695266140
H         7.75075078715042    8.31355822877001   14.77888411862771
C         8.26456561524182    9.85123362842464   13.37315281715381
C         7.82755327595664   10.54329184157014   12.25083241620505
H         8.45743608900370   11.30495709004039   11.81517414489494
C         6.59778855738902   10.27905238524922   11.67637816435379
H         6.26928330335077   10.82365158574627   10.80566628497886
C         9.60903503432143   10.15465551096634   13.98495311818866
H        10.07481725626953   10.95708428698766   13.40265237272088
C         9.45293062792558   10.64152200090083   15.42735566764011
H         8.79855485354834   11.50978317410083   15.46647516559286
H        10.42189934193252   10.92000808030745   15.83509133347669
H         9.02860142575964    9.86286675540816   16.05607008438469
C        10.52112621210474    8.92769600314387   13.91981751322326
H        10.61546308486492    8.58066234726513   12.89345860618671
H        10.12156269262895    8.11482629821765   14.52081197671276
H        11.51131233788971    9.17666361270673   14.29454577368284
C         2.58324900713587    5.40646620533880    9.82650584363689
C         0.78719116490434    5.77724406176849    8.63386507110667
H         0.06441631527045    6.35490686133603    8.09757055027182
C         0.86841446238035    4.44352703638848    8.83085552428680
H         0.22835285424516    3.64531393265416    8.51820091532671
C         2.46853978621996    2.92997828948711    9.91552892715568
C         2.51015592488610    1.96475026056593    8.91615739510971
H         2.21047049302175    2.22225073354786    7.91124979578756
C         2.97332921796528    0.69600290157878    9.20350524056996
H         3.02472432258343   -0.03509276715428    8.41171115918886
C         3.40657399964065    0.36832903506513   10.48542249558342
C         3.35367981586925    1.34539466164411   11.47170259312012
H         3.68428103920069    1.11080388514541   12.47318106591418
C         2.88557872699876    2.61895212845825   11.20081182671366
H         2.84864408863101    3.36701819190265   11.97668335490631
C         3.94695503869802   -1.00534935476431   10.78907799850466
H         4.15934874250711   -1.05973051250224   11.86312264762186
C         2.92377067609860   -2.08911590167744   10.44538835979754
H         3.29238602213670   -3.06219338764132   10.76148964064162
H         2.74693911125128   -2.12420935066094    9.37406746474540
H         1.97848236088696   -1.89647712936598   10.94903551171132
C         5.25304436862959   -1.23788797770684   10.02451124115026
H         5.66371543685560   -2.21313025573582   10.27547351879721
H         5.98695093140747   -0.47749448239119   10.28555735503910
H         5.08184339880606   -1.20277010795456    8.95148267880851
C         6.95485535069145    4.01897680166137    7.19523478804684
C         7.29754026358958    3.52738192484125    5.92889246400258
H         7.89188144363543    4.14734404392949    5.27735649120316
C         6.86299607233453    2.29138559742892    5.51993110531804
H         7.10374666954413    1.90757537011469    4.54015592509936
C         6.08553574470980    1.51236991389516    6.37972144504897
C         5.76166681884126    1.97991054154575    7.65359309052566
H         5.17652427994608    1.35959818447994    8.31335738808715
C         6.19072125641711    3.22021986992225    8.05306529829978
H         5.94958716838067    3.57796694975161    9.04758247566000

