80
CSD_code = CAZQUQ | q = 0 | S = 0 | Stoichiometry = C33H35BN6S4Zn | MND = 4
Zn        1.13090500901571   10.73263552674747    3.73065250157451
S         1.62682046967667    8.66237781137467    2.30659207536177
S         2.64515830784809   12.46413868366282    2.64748856143123
S         2.48429140874086   10.20091022871086    5.82777040035117
N         4.19731513443893   12.23671386967552    5.99578192175695
N         4.66519680527352   10.91691834880726    4.31308654074524
N         3.16277323383190   11.35799553224222    0.27586219771290
N         3.96626347235433    8.54870970252459    3.74203247943635
N         2.53698107668021    6.93460223260361    4.12243471635926
C         3.81550523587287   11.12673345176071    5.33226306987464
C         2.75513620996459    8.06566566582416    3.42133589655719
C         4.50262334184749    7.70699361277521    4.68220319212705
H         5.46725329662927    7.89629839198474    5.10444704618134
C         3.34624101781373   11.31859356476863    1.61105716408400
C         1.06583250807432   12.12207474490371   -0.70086605587967
N         4.16082130543645   10.29226232249119    1.90668306251134
C         2.41290319699792   12.34298274150591   -0.42371968088324
C         0.20390499986299    4.36966327593267    2.89070656669701
H         0.14526482806151    3.63582851298117    2.10076701156547
C         4.50477330366389   13.72733249010961   -0.44415997192155
H         4.86663894439613   14.66725313400302   -0.85151414002283
H         5.12914059429243   12.91754022559021   -0.82206230929489
H         4.60978619590507   13.75547305520416    0.64070620999730
C         4.47113197802530    9.66713830649376    0.72642904767678
H         5.10105653231258    8.80253051497690    0.71019226877792
C         3.06697971472089   13.51447935629024   -0.80670109837930
C         3.58524100154963   12.74011381451747    7.17634399333290
C         1.38037312084233    6.11470177373022    4.01782023786657
C         0.37696296077133   13.10697035863459   -1.39909098302339
H        -0.66936854195661   12.95742908805622   -1.61898414932472
B         4.72290652587797    9.79912240284328    3.25385495953488
H         5.86676283074946    9.50065290182792    3.09165056291757
C         5.58106962666133   11.93714446911347    4.33182788952070
H         6.35672708919093   11.99441326631883    3.59717756895945
C         2.34562683006475   14.47229078235809   -1.50241103090630
H         2.83399817969626   15.38605634259915   -1.80652922057927
C         3.62508777214079    6.70702651709939    4.92163575593095
H         3.67503519129105    5.86441801700154    5.57986021224489
C         5.29941090940130   12.75503017682752    5.37067731239403
H         5.77399315483760   13.65052332748559    5.71504488526948
C         3.85912762369445   10.32162652286313   -0.28575118948213
H         3.85153015789921   10.14384070809413   -1.34122530126179
C         1.33052061597104    5.17212692603898    2.99080274695033
C         0.33652951457242    6.27738699145656    4.92689307268539
C         0.36035064559513   10.89209270661648   -0.22862367100775
H         0.00790588818847   11.04826146872896    0.79406630863505
H         1.01083571974283   10.01991421515455   -0.22080300847971
H        -0.50709062759733   10.68258484033802   -0.84908202417608
C         2.04783566381797   14.14166258336745    5.75497212518852
H         1.32213612157376   13.41963401573267    5.37214489593895
H         2.84047595443371   14.22917339020745    5.01452701530298
H         1.54244586696109   15.09904375647487    5.84894264563646
C         4.03821853721475   12.25813357643234    8.40477309314972
C         1.00968794505213   14.26770534065037   -1.79961035057390
H         0.45808433769643   15.02225775256816   -2.34008427036024
C         2.56150198254070   13.67991574538499    7.08016158543375
C         5.11035408721885   11.21293077778119    8.45530257699274
H         6.00559411284568   11.54269237402781    7.92790440019030
H         4.75584788427869   10.29908144912978    7.97776147240696
H         5.37455459038061   10.98588745008302    9.48439954955503
C         0.38681254529250    7.32633940750411    5.99063691799360
H         0.14959462434230    8.30236237715825    5.56108390501844
H         1.37439494571420    7.40613216488190    6.44060424959410
H        -0.34264774378561    7.12077450392816    6.76923324653273
C        -0.77489478232076    5.45427948341368    4.79260279169532
H        -1.59712005488943    5.56717607127569    5.48321637935580
C         2.46054956593800    5.05798896210436    2.01452537123328
H         2.30221552757167    4.21907810622146    1.34254488396143
H         3.41185039512898    4.92215891091474    2.52900114284133
H         2.52578093179083    5.97040950165619    1.42112009851577
C         2.00104539163053   14.15128829435044    8.26147076421114
H         1.20336734189986   14.87691386412829    8.20918828629597
C         2.44378735713986   13.69629952846031    9.48849709351300
H         1.99494958806277   14.07248867148366   10.39559717366951
C         3.45369746652623   12.75312448836849    9.56034749249710
H         3.78877488957800   12.39059644250857   10.52075309792292
C        -0.84072534131463    4.50887838665920    3.78686984759646
H        -1.71358671325940    3.87977853581717    3.69656162612672
S        -1.13857201892739   11.13880417923375    3.90852153344305
H        -1.46414531103898   10.00733698643879    3.31080575676127

