67
CSD_code = CAZQUS | q = 0 | S = 0 | Stoichiometry = C33H25BrCoN3O4 | MND = 6
Co        2.02608651691289    1.38526030737309    9.92411248530372
O         0.96393648295317    0.38505541526581    8.74512090274568
C        -0.23555703965181    0.00154984215139    8.91753141623633
C        -0.82903915777323   -0.86779718290757    7.95700890404505
H        -0.21386007941802   -1.16736060175830    7.12197430787667
C        -2.10916663911221   -1.31849656030088    8.09153418000632
H        -2.52599567717051   -1.98556143424657    7.35011867399195
C        -2.89828253851888   -0.93278142622488    9.18798909107833
H        -3.90723441553786   -1.30475417770577    9.28050521438535
C        -2.37629140481263   -0.09042569494713   10.12615633025483
H        -2.97394861590329    0.21586189551938   10.97419771512601
C        -1.05752733570049    0.40678644723963   10.02320186174249
C        -0.58690957874769    1.30279956352679   10.99766366455195
H        -1.29681633300159    1.55239975680291   11.78438915747504
N         0.60146434184716    1.84793527952332   11.02525403173317
C         0.96191268836087    2.76783502865598   12.00091830662278
C         0.10402241592299    3.38643703653662   12.90973351773864
H        -0.95246046092580    3.16851393873235   12.90986154063988
C         0.59343435054478    4.31089733700604   13.81272917439938
H        -0.08100326172884    4.78526785762745   14.50926152488302
C         1.94008663414375    4.63953923278348   13.81745940539891
H         2.31569666396835    5.36963467738104   14.51815722743845
C         2.80607159999279    4.04706632182992   12.91809302709438
H         3.84412159439857    4.34063873149078   12.92810859958666
C         2.33616274858111    3.10600806603949   12.00278048686477
N         3.08382314142730    2.45302322960112   11.03114539657817
C         4.38560211987813    2.54397024817232   10.98998003062602
H         4.89637664457509    3.13944327674786   11.74506117792814
C         5.22745376964670    1.92690717209528   10.04512030438299
C         6.62494318816221    2.09879457037360   10.15191883235866
H         7.00665636915513    2.68880141153631   10.97465359215136
C         7.48679755144124    1.54475145971366    9.24933909625847
H         8.55262778283641    1.68414201727576    9.34631136161830
C         6.97592093355997    0.79439776858467    8.17842584223588
H         7.65950315420789    0.37112900318581    7.45602062552245
C         5.63307621659530    0.59585653710101    8.04327826854463
H         5.23162485286320    0.01552368132466    7.22603752567876
C         4.69813476154748    1.13182782474675    8.97448526714845
O         3.45850947186135    0.89510103171277    8.80925152813509
C         2.32009824905944   -0.14805791080242   10.95723194875010
O         1.52905470191982   -1.04193830838922   11.10487862983834
O         3.55556999379965   -0.14853121556387   11.45007433972535
C         4.10836131377347   -1.38933754908492   11.93393379058773
H         3.29329940444641   -2.11241799797614   12.04456198598432
H         4.56396222247045   -1.17662211140035   12.90387227584273
C         5.12631198849183   -1.83481141494307   10.92506645613912
C         6.48108447682709   -1.61234496650620   11.13120539361768
H         6.82014141722518   -1.17852035104277   12.05988396264281
C         7.40382516532992   -1.93349077708597   10.15304864493529
H         8.45684312843741   -1.75765068746207   10.31020036514091
C         6.95484329208413   -2.47138150227567    8.96085444283085
C         5.60962265518990   -2.69972260031201    8.73125048213681
H         5.27922165097180   -3.11595290408690    7.79204301826772
C         4.69808242208653   -2.37599148483179    9.71767018605610
H         3.64319587295291   -2.52660068294762    9.54390821051904
Br        8.21525020416247   -2.88423625981823    7.59920826431675
N         1.66772262120137    3.12337071834343    8.57252736555416
C         1.78135565690272    2.85718826340877    7.27670250768532
H         2.04449595192030    1.83864674455602    7.03138391966390
C         1.57788391421294    3.81173215376596    6.29290102993018
H         1.68254037771141    3.54732516059725    5.25241269812510
C         1.24007528364268    5.10033371359948    6.67163785150578
H         1.07356059865235    5.87060434262545    5.93287979201082
C         1.12026847372551    5.37824458939545    8.02398713623839
H         0.85860664251907    6.36605180931785    8.37017359056783
C         1.34361941287134    4.35861688035719    8.93439143894697
H         1.25724945003321    4.54791545899940    9.99642067605330

