221
CSD_code = CAZROL | q = 0 | S = 0 | Stoichiometry = C72H130Cl2PdS4Si12 | MND = 4
Pd       -3.93369292477752    1.37734174725516   13.94573164595796
Cl       -3.04794971951649    2.93584727618267   12.57642377556732
S        -3.61381248916542   -0.30166418327898   12.34178745109429
C        -3.69171304628042   -1.80641364004056   13.29303553073813
C        -3.42319196075748   -3.01092280546794   12.65713574079824
H        -3.03826799465765   -2.99893489211406   11.64857728391827
C        -3.66272227013293   -4.20682220106512   13.30709634699610
H        -3.44306639717565   -5.13902340682250   12.80999308520519
C        -1.98750943334735   -0.39462795077585   11.64151540778401
C        -1.85145159096361   -0.46110405456059   10.26566766451000
H        -2.73694167649563   -0.48371561644355    9.64908048019034
C        -0.58764607298967   -0.49081747062710    9.70471317797668
H        -0.47408197031715   -0.54621602297827    8.63341837332370
C         0.52927365495628   -0.44257687141922   10.52680177363112
H         1.51794292212481   -0.46300931730491   10.09267736836117
C         0.39480886622796   -0.35758161220590   11.89828211014131
H         1.26159017565069   -0.29766913874296   12.53623682189672
C        -0.86992701762554   -0.32562906816026   12.47349900196911
S        -1.14245535915660   -0.20894470445728   14.20010059394699
C         0.50809613689320   -0.00924944566891   14.84743458153891
C         1.06112363650060    1.27295373371870   14.91564759887899
C         2.31544645410695    1.38551254040037   15.50534296414087
H         2.75588483696769    2.36689999761754   15.57268445800703
C         2.99744999546002    0.29509593362784   16.02242798986453
C         2.41516675718006   -0.96284225543981   15.91582087832709
H         2.93325466552672   -1.82311301359925   16.30578298898561
C         1.17124031177510   -1.14162763180066   15.32886929959136
C         0.35075533759110    2.48015444423344   14.42496110102410
H        -0.50979120046339    2.16610543632792   13.82495192494738
C         4.31124491264503    0.49040020024891   16.70340047760632
H         4.51534972401868    1.56647946935066   16.68604305195593
C         0.57290503763392   -2.50434618921888   15.21612803557423
H        -0.33572139684980   -2.41012385378843   14.61201375060214
Si       -0.48026046286960    3.37850061389971   15.92830537479941
Si        1.38220366700592    3.58388617582008   13.23409125146939
Si        4.18440866646773    0.05395708275144   18.57647329071718
Si        5.75691243110092   -0.27107448501250   15.68548984869666
Si       -0.10493941271897   -3.09142338940298   16.92160478072201
Si        1.66912245075798   -3.72209284572266   14.20645115964257
C        -1.69246979657746    2.10721865990257   16.65959359647129
H        -2.30090800497510    2.52718164446334   17.45431677740465
H        -1.18894087505651    1.22672352679831   17.04767262495466
H        -2.37376195489664    1.78590956532886   15.86395028233362
C        -1.42567505364652    4.90910789502115   15.32582387244113
H        -2.10808114662940    4.63669319908076   14.52689935360787
H        -0.76706847177560    5.68565953921610   14.95146813311662
H        -2.02122974246269    5.33346149125873   16.12803750547540
C         0.78801828047962    3.82905081920815   17.28147120586093
H         0.28733333267182    4.27328672663477   18.13571552095852
H         1.52140039212561    4.54307163346070   16.92599427469758
H         1.32143501086448    2.95145621152039   17.63069907280737
C         0.19660717805440    4.50242060530029   12.06331715578055
H         0.65105164742026    4.66930380279046   11.09132985994895
H        -0.08360838027409    5.47114774987142   12.46254078850252
H        -0.72163568757280    3.94505719064058   11.90817657203434
C         2.47754526554698    4.88236463410899   14.11417905612702
H         2.96912966797889    5.51057594146623   13.37706380773264
H         3.25555030968074    4.43661953619496   14.72546786479351
H         1.88582564985118    5.53159516008146   14.75078479902110
C         2.53951948058839    2.47254662876952   12.19062249029230
H         1.97795403375636    1.92827564365568   11.43818696184853
H         3.06519162447286    1.74821001697688   12.80444804126437
H         3.28677143057174    3.06716624829256   11.67398201054002
C         2.39030415454451    0.34603216003806   19.16306933776296
H         1.67070225169015   -0.05908910897716   18.45853118922395
H         2.18203357502085    1.40702233665074   19.26215326063446
H         2.20493922496465   -0.11192438680336   20.13007597488059
C         5.32884371789480    1.23896751505800   19.54073427727013
H         5.04784625863525    2.27584868678016   19.38512848414619
H         6.36462373487792    1.13168878322699   19.23773107800285
H         5.27874054469011    1.04516726755215   20.60757143849661
C         4.71060610535429   -1.73325953891140   18.99217902848586
H         4.50346380434778   -1.95656937318899   20.03459368366629
H         5.77553709399518   -1.87285960769380   18.83664113937436
H         4.18765596797478   -2.47020670157218   18.39308002167704
C         5.64711334084770    0.45569390231620   13.92299733637332
H         5.63077582677191    1.54106428811370   13.93825396514788
H         4.74282220631372    0.12498866590078   13.42105968074605
H         6.48958891032652    0.14905003299767   13.31065795831174
C         7.40371352037946    0.26714281375097   16.48524513589018
H         8.24482081422202    0.00996562784300   15.84940951198234
H         7.55842906265516   -0.22035561992030   17.44204864068383
H         7.43717332092224    1.33870359842534   16.65214934890814
C         5.76447161381600   -2.17234270678279   15.53195275867768
H         4.88794026161573   -2.53798250863498   15.00930000920289
H         5.80697260265862   -2.66106586008476   16.49871412985978
H         6.63580711892726   -2.49420667689861   14.96848411470113
C         1.21709854504647   -3.39545528360052   18.26011725725748
H         0.74676615547901   -3.74866076312943   19.17325492770075
H         1.75399304838572   -2.48522116064390   18.50295842543222
H         1.94263800688173   -4.14296583114690   17.96020843521297
C        -1.09334839615305   -4.69870798611815   16.63273073867920
H        -0.44601283718626   -5.52272343950514   16.35272161575892
H        -1.82921059724527   -4.57171657947425   15.84496919559328
H        -1.62400587203612   -4.99323788338107   17.53237491635371
C        -1.29648077614457   -1.75118146534038   17.57196267539116
H        -1.97461236638344   -1.41059368848485   16.79562503582307
H        -0.74858019531007   -0.88422707852449   17.92842839294944
H        -1.89791294869297   -2.11693842794488   18.39870413016026
C         2.80632088256114   -2.78181009284890   12.99173216614307
H         3.17789831464305   -1.85825186028188   13.42480312465342
H         2.27574700933223   -2.52882714784898   12.07910225959427
H         3.66674210364826   -3.38202515822173   12.71125362628552
C         2.74170565870212   -4.88304046659126   15.27588092638230
H         2.12936634973720   -5.52237085558647   15.90306906509389
H         3.42198709502136   -4.33800311634625   15.92140056715039
H         3.34414381293985   -5.52845866000170   14.64351317554492
C         0.46634635125996   -4.78276816815030   13.16769343860662
H         1.00161330378389   -5.49765606914921   12.55103183753868
H        -0.12931246213236   -4.16054848903811   12.50582036019351
H        -0.21996967237510   -5.33966273854892   13.79619653566009
Cl       -4.81914161869187    2.93599617244599   15.31487107886046
S        -4.25349381402744   -0.30158050930768   15.54973103765275
C        -4.17561653707137   -1.80638989102462   14.59853953070328
C        -4.44416925526904   -3.01085124307438   15.23450596121685
H        -4.82907305802239   -2.99879605603491   16.24307044879201
C        -4.20467824691041   -4.20679144744222   14.58460482141419
H        -4.42434986005914   -5.13896269424259   15.08175655959367
C        -5.87982785601083   -0.39442854244657   16.24994239811473
C        -6.01591408808660   -0.46083716426335   17.62579023071277
H        -5.13042509986768   -0.48345832986733   18.24237887042217
C        -7.27973071776652   -0.49047205457891   18.18672281572711
H        -7.39331734611474   -0.54580164810310   19.25801887693546
C        -8.39662325454744   -0.44223667016178   17.36459939293895
H        -9.38530500232144   -0.46263115621325   17.79869756726165
C        -8.26213233078448   -0.35731325235006   15.99311439562146
H        -9.12891310911247   -0.29741498715984   15.35515614114870
C        -6.99738354729254   -0.32542052985790   15.41792145416989
S        -6.72476335036176   -0.20879135411464   13.69133037016105
C        -8.37529929959852   -0.00913543287177   13.04392894206251
C        -8.92836036329258    1.27306164625059   12.97572332702344
C       -10.18269966685611    1.38558006283582   12.38606984450101
H       -10.62319536997750    2.36694348257106   12.31874160486979
C       -10.86469580568910    0.29513679158836   11.86901418233532
C       -10.28236492393734   -0.96277458385316   11.97558227630140
H       -10.80041780867626   -1.82307354387745   11.58563757741847
C        -9.03840503728699   -1.14152434760981   12.56249270590551
C        -8.21799213254199    2.48027579844151   13.46637614043648
H        -7.35746611758987    2.16624029454062   14.06641733060384
C       -12.17856161362803    0.49040306210096   11.18816239573927
H       -12.38270921696914    1.56647238939810   11.20556646563179
C        -8.43999960704956   -2.50421840853341   12.67513594888694
H        -7.53134205217787   -2.40998048897072   13.27920062755438
Si       -7.38690621211950    3.37855479752153   11.96302331550346
Si       -9.24944829629176    3.58405772751229   14.65718894014951
Si      -12.05187267127338    0.05401604698397    9.31507098200259
Si      -13.62410420941094   -0.27118858828286   12.20615825092170
Si       -7.76227140985907   -3.09121825422919   10.96959578750373
Si       -9.53609233872681   -3.72208243587479   13.68478710184381
C        -6.17465475161233    2.10728939891341   11.23177210979483
H        -5.56623486642881    2.52724851413140   10.43702949163887
H        -6.67815870111648    1.22676856079618   10.84371715670414
H        -5.49334566677701    1.78602094830702   12.02741653370570
C        -6.44158087672474    4.90920609781975   12.56553604362450
H        -5.75924100724231    4.63682779381585   13.36453063306986
H        -7.10025971675476    5.68573220088986   12.93982019323953
H        -5.84597036142251    5.33357648096944   11.76337250056725
C        -8.65519787402791    3.82899217597175   10.60983247461206
H        -8.15454479413719    4.27315956298562    9.75553419396431
H        -9.38857711914465    4.54303516178192   10.96527117152754
H        -9.18861839994861    2.95136263553788   10.26069575608467
C        -8.06382658201668    4.50261522339768   15.82791431853312
H        -8.51826587654658    4.66958627207412   16.79988743598601
H        -7.78356959533292    5.47130192923678   15.42862165170768
H        -7.14560782183867    3.94522407450502   15.98309324131797
C       -10.34478948032606    4.88249205157100   13.77703296099726
H       -10.83638020832046    5.51073172133686   14.51411943483794
H       -11.12279485474996    4.43671249389917   13.16576804641035
H        -9.75308312464017    5.53170143909195   13.14039410051633
C       -10.40686601650219    2.47282182108015   15.70065774351856
H        -9.84538664187028    1.92857123731855   16.45317047769806
H       -10.93253528838150    1.74847271990521   15.08684353125033
H       -11.15412484579454    3.06751610624735   16.21720411007730
C       -10.25784331956597    0.34622612974200    8.72831468267492
H        -9.53815537418704   -0.05883455074976    9.43280007394873
H       -10.04965994121854    1.40723058859521    8.62920002661882
H       -10.07252401386792   -0.11173049400202    7.76129926028593
C       -13.19651554205436    1.23891911732785    8.35092033836379
H       -12.91564821420111    2.27583490095875    8.50652583449328
H       -14.23226190796850    1.13149765729849    8.65398895274845
H       -13.14646245779936    1.04514814495316    7.28407499758031
C       -12.57799565628106   -1.73322079676505    8.89935995579263
H       -12.37095951062690   -1.95647575154163    7.85691223343514
H       -13.64290030502659   -1.87289470311304    9.05501332985117
H       -12.05493001471426   -2.47015730542798    9.49836970972894
C       -13.51419953847413    0.45550645804094   13.96867372588091
H       -13.49793610791706    1.54087864904989   13.95347157719289
H       -12.60984749424673    0.12483312192335   14.47052316442903
H       -14.35660674081153    0.14877479173460   14.58106214091584
C       -15.27100995536541    0.26692415690612   11.40655234700398
H       -16.11203297114460    0.00968604472461   12.04247415874591
H       -15.42577735672896   -0.22060325941033   10.44977174406365
H       -15.30456804084253    1.33847960407528   11.23963719477101
C       -13.63157032337107   -2.17246361695950   12.35960616773788
H       -12.75499958640891   -2.53810801750170   12.88218853597628
H       -13.67411771981216   -2.66113629522217   11.39282168315450
H       -14.50286646464634   -2.49437491501878   12.92310822309092
C        -9.08437465546047   -3.39524246950533    9.63114702957430
H        -8.61406584510135   -3.74839364450460    8.71797591637592
H        -9.62131048945301   -2.48501580220784    9.38836817496405
H        -9.80987324837087   -4.14279179383955    9.93105726183281
C        -6.77377273273554   -4.69847152922739   11.25833331335647
H        -7.42104957096068   -5.52254211371512   11.53831366440305
H        -6.03788312441242   -4.57149192008288   12.04607159025770
H        -6.24314019300563   -4.99290703747209   10.35864369649320
C        -6.57081864317580   -1.75091430129015   10.31921362877058
H        -5.89264308501625   -1.41033872905850   11.09551909413518
H        -7.11877326428476   -0.88396492070507    9.96281947430159
H        -5.96943746577599   -2.11662614344897    9.49241584202698
C       -10.67324307299585   -2.78192122309089   14.89963589797594
H       -11.04496851542813   -1.85840669989685   14.46660183806123
H       -10.14257896565324   -2.52887453174161   15.81219548093663
H       -11.53356425416103   -3.38222754223174   15.18022277993358
C       -10.60869183908568   -4.88303343366106   12.61537464195256
H        -9.99637063563001   -5.52231683011404   11.98812075895582
H       -11.28903879003402   -4.33799965243511   11.96992159798291
H       -11.21106246919691   -5.52849850127434   13.24775981047370
C        -8.33319865004227   -4.78275741593090   14.72341095845533
H        -8.86839255532347   -5.49769687514868   15.34007573066862
H        -7.73752646484601   -4.16053929078203   15.38527290483242
H        -7.64689417738050   -5.33959237229698   14.09484344250253

