50
CSD_code = CAZVEG | q = 0 | S = 0 | Stoichiometry = C21H23ClN4Pt | MND = 4
Pt        5.28363086898582    4.73606350916278    3.61186436679478
Cl        6.31094433335478    6.70146339759561    3.56983244237071
N         4.58781069069212    2.94667489825578    3.46647048417620
N         3.42677274155246    2.77064615358832    2.91596336326792
N         7.05085565450449    3.57134969864537    3.99850984159237
N         0.94265698775613    0.52511621772659    1.84076038001729
C         3.01710913865699    1.58494455774031    2.49706958045309
C         3.83552461434219    0.44141089163023    2.59739953427068
C         3.39462325818453   -0.87609785000681    2.04926592209039
H         4.25224317108960   -1.44698665271989    1.69540634394110
H         2.72712432760043   -0.70497710615058    1.20493118049844
C         2.62315604140857   -1.70090229127854    3.08862500766453
H         1.66053712071289   -1.21690273093126    3.25435208159623
H         2.43656207347521   -2.69032290214952    2.66616640531769
C         3.34217477945890   -1.84908169387006    4.42604296175253
H         3.41767894808340   -0.87243289280089    4.90871845740381
H         2.71552548153656   -2.47219740185969    5.06739110257030
C         4.73815988259891   -2.47688085277067    4.31744013237171
H         4.83264961855864   -3.01711379227572    3.37397476088654
H         4.86039767410454   -3.21134431037622    5.11683763280723
C         5.88247921366650   -1.47354468412859    4.45875371375154
H         5.71464293556353   -0.90176528399169    5.37459123086384
H         6.81304610084517   -2.03423950352872    4.58143152037631
C         6.07904954125823   -0.51370123083304    3.27274829026523
H         7.08324845070289   -0.08958275847353    3.32785963511132
H         6.03256637999312   -1.09286424340201    2.34938492489612
C         5.08797405526253    0.61426708368268    3.20623811708780
C         5.43102981053207    1.89476077181878    3.66904325286552
C         6.70276410800131    2.29996419266226    4.28271499938045
C         8.18239068609365    4.07192629911474    4.47349631847652
H         8.39505983514258    5.09543233572495    4.19292326809722
C         9.03854206760614    3.34398010945003    5.28104146705179
H         9.95569943272100    3.78237459454853    5.63923333226725
C         8.66750415872153    2.05598281466972    5.63717812336641
H         9.28191892358199    1.46821798678741    6.30251254840386
C         7.48768122344217    1.52941634566157    5.13917375166111
H         7.17090312216873    0.55014632744332    5.45016647381403
C         1.67772715737618    1.63212274219466    1.88147269651279
C        -0.26249939857963    0.58137625816530    1.30619777696508
H        -0.80953234419866   -0.35293996695319    1.30526408551417
C        -0.81303298855503    1.73927680535543    0.77935617531172
H        -1.80466378417060    1.73387010895117    0.35483868539051
C        -0.05107658118283    2.89828573646084    0.81910494487573
H        -0.43870270293529    3.82494769469034    0.42171678118713
C         1.21294398837043    2.85017284666391    1.37655186471397
H         1.84390457066746    3.72126424937780    1.43462843027127
C         3.49037754954055    5.70249821157313    3.52462832977085
H         3.33231537187705    6.05871232295917    2.50167045732776
H         3.47142492236136    6.57369902246339    4.18360166487683
H         2.66917678745242    5.03601396374294    3.79335515769777

