54
CSD_code = CAZWOQ | q = 0 | S = 0 | Stoichiometry = C24H15F6N7OOs | MND = 6
Os        0.92765390925138    1.12142091579477    3.63782593613159
O        -1.56193304681968   -0.58590271827237    3.71500243469058
N         0.35838794096546    1.98831132837124    1.81965313295679
N         1.89815749875697   -0.05677906633574    2.29295133815302
N         2.76463329680876   -1.02551665902404    2.42128164528881
N         1.61001652767826    0.33264187117481    5.45334830682776
N         0.23518515879819    2.49100352288568    4.97326050394836
N        -0.36550918620095    3.64270477052676    4.83682326665128
N         2.68968143316392    2.32818512386109    3.57929797215253
C        -0.61388210031163    0.06434536074732    3.68643166297458
C        -0.47266089384753    3.01723690036325    1.68078783239878
H        -0.88938704452446    3.41810072242230    2.59758447645273
C        -0.78542163352136    3.55716840344677    0.44598395964415
H        -1.46419201175281    4.39144546046006    0.37938022636891
C        -0.21316480746497    3.00434444292112   -0.69351092110272
H        -0.43973498802338    3.40237123089788   -1.67084956784510
C         0.64972999330613    1.93479129334653   -0.55687711385254
H         1.11362443903147    1.47370260056133   -1.41381395958452
C         0.92081674181810    1.43871708455246    0.71803013086367
C         1.80414716826662    0.33361321745530    0.99534975949189
C         2.67271767815686   -0.45999101300561    0.24252847688253
H         2.86624520078353   -0.44302599766058   -0.80946897289574
C         3.24908313146013   -1.29541094432800    1.19631251064845
C         4.29383538714730   -2.32901154367958    1.00294434852994
C         2.27913277108748   -0.80748262334918    5.59823413552632
H         2.46702138170212   -1.36661967232293    4.68887639433787
C         2.72169510046846   -1.25698173046940    6.82958906956507
H         3.26110886696077   -2.18708076470432    6.90123498098762
C         2.45610903905103   -0.49216397602700    7.95922093352148
H         2.78623792758349   -0.81802410624921    8.93379874947492
C         1.76077854512150    0.69240413583876    7.81639117763914
H         1.53056443805269    1.31520676031728    8.66567656178196
C         1.34325071202081    1.08644943789551    6.54541221779839
C         0.61670428348173    2.29904463296823    6.26263995698301
C         0.21475348904744    3.41404403938818    7.00162279393535
H         0.34030850880530    3.61723128462476    8.04441277618395
C        -0.39715958464562    4.22468014122895    6.04860968677102
C        -0.98289005127002    5.57425970007082    6.22987695207028
C         3.90051580113109    1.78290032111502    3.70325348689544
H         3.94201474569228    0.70854014638557    3.83161540651036
C         5.06784897193240    2.52454984416898    3.65909753556282
H         6.02020713192773    2.02931214135900    3.76085044866760
C         4.98524997617925    3.89662271252517    3.48154965391606
H         5.87586720951107    4.50495444675385    3.44270005066475
C         3.72809430426199    4.46636367036034    3.35536654184390
H         3.60612026316356    5.52888487467968    3.21837993368276
C         2.61303716028608    3.64872111659714    3.40865341543522
H         1.62078246628123    4.07347269637788    3.32201033866039
F         5.45274836765629   -2.01218768658375    1.62674566416147
F         4.60806266898107   -2.49758271119270   -0.29273589642360
F         3.94949440682421   -3.53999457813540    1.47254014975530
F        -0.28499509547582    6.53107224271036    5.57374804019743
F        -2.24631359450126    5.67906164645898    5.78498265360498
F        -0.99978000424483    5.95147554972205    7.51958880451024

