24
CSD_code = CBPPHG | q = 0 | S = 0 | Stoichiometry = C12H8BrClHgO | MND = 2
Br       -0.55372662223462   -2.85270748403140    0.35787192456039
Cl       -3.12852534369449   -2.11648292283567    5.17128492313316
C        -2.38409048793930   -4.59466522903949    4.34400740877914
C        -5.28536982737803   -7.27567601270541   10.67957217994655
C        -5.54527695050233   -5.93110661946217   10.87435636692766
C        -5.17901309834745   -4.99672895852739    9.91591408208837
C        -1.77766969355875   -5.42227146083763    3.37486611652691
C        -1.24265793995958   -4.92077916410336    2.21217805180286
C        -1.29120456754366   -3.55718561605885    1.96599143564523
C        -1.87144113083016   -2.69431181603354    2.87634178119928
C        -2.40306027758191   -3.21626174712561    4.03771483269176
C        -4.54570765294280   -5.41512140055322    8.75107634304332
C        -4.28490039010883   -6.76735067693866    8.55573129256678
C        -4.65546724444923   -7.69271792124812    9.52007002265839
Hg       -3.88250215501113   -4.10705271208248    7.12270866011250
H        -5.57317198456273   -7.99698306163040   11.42991149193408
H        -6.03649689824065   -5.59754386572143   11.77648770147266
H        -5.39403759574195   -3.95172826587150   10.09319912954536
H        -1.74736543900213   -6.48079103147112    3.58034907524590
H        -0.78672331773844   -5.58447791875232    1.49329088662077
H        -1.91013751371534   -1.63273373468754    2.68688617302463
H        -3.79140739910938   -7.10808127516454    7.65207666684544
H        -4.44868686711363   -8.74031210827190    9.35959495731475
O        -2.87665960268990   -5.10722899684303    5.42621849630822

