25
CSD_code = CCPYPT | q = 0 | S = 0 | Stoichiometry = C10H10Cl2N2Pt | MND = 4
Cl        0.38697628562295    7.36969096805650    6.06283276768537
Cl       -0.81516190761466    4.83380791906087    7.63942192048440
C         2.86503837981572    8.09027719810470    8.99359779076922
C         0.87098793971393    4.62229014595024   10.26561302484543
C         3.72098867241481    9.17013142917872    9.09764343769132
C         3.24752845075838   10.43623899273480    8.78430670305305
C         1.92686982618266   10.56253620406730    8.38246573157028
C         1.13691965975468    9.43044326421033    8.29942037545712
C        -0.02425725033203    6.57258277804579   11.07768243188959
C        -0.18208477246474    6.02907120895661   12.33815841516490
C         0.21065303375474    4.71663388222458   12.55865904602127
C         0.75127379741213    4.00637222470980   11.49812943126420
H         3.20585148786648    7.08828104822169    9.22484494133401
H         1.26920816107925    4.09223572204375    9.41038542799520
H         4.74180491416854    9.01920132460513    9.41090011382150
H         3.89303290916955   11.29858091356965    8.84768072896363
H         1.51287383864386   11.52437455879584    8.12586473045195
H         0.10742137275275    9.48811304902117    7.97056929703301
H        -0.32713751043505    7.59227121403925   10.87236909845895
H        -0.61210784093020    6.62213151563644   13.12955365552988
H         0.09396843325217    4.26097726298527   13.52974376022822
H         1.06906378190140    2.98318746645196   11.61826552851168
N         1.59644951107170    8.21353633682329    8.59931456561271
N         0.48986872050833    5.88451405845068   10.05642495203238
Pt        0.45657010593217    6.60511931405495    8.17345212413285

