25
CSD_code = CCPZRA | q = 0 | S = 0 | Stoichiometry = C12H10O2Zr | MND = 12
Zr        0.82719605871981    2.86098984669218    1.31352815931143
O         3.75832036123655    1.44586952152522    1.46569111730570
C        -1.16389555585390    2.86089889701278    2.70878563026940
C        -0.42437936538105    1.71421333502696    3.08748312349764
C         0.75109124252631    2.15600642440910    3.74248894615899
C         1.27421525433095    2.86113833975457   -1.15056953859036
C         0.49334038037325    1.71625244953112   -0.86520419929979
C        -0.77230366823373    2.15309988421241   -0.41168082811673
C         2.60217348376952    1.64806539681073    1.41712187057455
H        -2.18106565365793    2.86121272438711    2.33082265345851
H        -0.77689213818082    0.68784693083282    3.04596668008212
H         1.46969814688111    1.52316558379794    4.24976230568320
H         2.25505986698756    2.86107445342838   -1.61074960819394
H         0.76767559875343    0.69097253667254   -1.09164313079057
H        -1.63655140759855    1.51765160560710   -0.24621177127800
C        -0.42397865096807    4.00707039490219    3.08826525060414
C         0.75129864756922    3.56441149510694    3.74302863795403
C         0.49352460544023    4.00611724184508   -0.86515985383871
C        -0.77220817164727    3.56943983661713   -0.41168230843348
C         2.60169162864580    4.07477240893955    1.41382448395027
H        -0.77614071586054    5.03359491249476    3.04745117128334
H         1.47014399501827    4.19665501771012    4.25070456183129
H         0.76798046358166    5.03136524237920   -1.09164046252793
H        -1.63637665684840    4.20502834429239   -0.24626450789699
O         3.75748225039838    4.27808717601192    1.46368161699973

