43
CSD_code = CCXAPT | q = 0 | S = 0 | Stoichiometry = C12H26Cl2N2Pt | MND = 4
C         4.72225922091880   -2.51556279781615    3.12487144464277
C         4.83183816458569   -2.10102757347410    1.66048366848565
C         3.44754787636790   -2.01868221673223    1.02146958669816
C         3.83754421879077   -1.53708195404297    3.89237030559130
C         2.45432752097203   -1.45526092726874    3.25434399682644
C         2.57041672076824   -1.03061583896940    1.79189216429300
N         1.23122411741714   -0.90891892740453    1.19555113908342
Pt        0.00033610734861    0.50871868040580    2.24550983970116
Cl        1.22869214701085    2.04344495526354    1.14560766727157
H         5.71570612492926   -2.54740957611447    3.57470110425767
H         4.29558698108392   -3.51984898290147    3.18782570338640
H         5.31317574741382   -1.12353126131375    1.59615020483053
H         5.44930479590672   -2.81643876973964    1.11417153459582
H         3.53875063246978   -1.70220828932878   -0.02015141710937
H         2.98249453138159   -3.00963572555841    1.03609056054750
H         3.74704470177311   -1.85215484978284    4.93337160874611
H         4.29574694397990   -0.54691063184788    3.87984175555199
H         1.83958847939647   -0.71904196870053    3.78643526465285
H         1.96602898185027   -2.43270555843852    3.31546748908878
H         3.02040693256426   -0.03302931875751    1.75091796774922
H         1.32218173478678   -0.45975655275755    0.28179062206415
H         0.82523075875293   -1.83498854255403    1.06126833690621
N        -1.23131000132307   -0.90857379263701    3.29501976870326
Cl       -1.22889446253203    2.04462262885578    3.34385986801250
C        -2.57049060332577   -1.03027195658281    2.69859906882170
H        -1.32224882275172   -0.45914739551819    4.20869164037221
H        -0.82531545847331   -1.83466184419643    3.42948891691852
C        -3.44755627226009   -2.01836954610721    3.46902061948673
C        -2.45436374622804   -1.45494055282407    1.23617571829491
H        -3.02060016779578   -0.03272239463691    2.73952185793420
C        -4.83182500374475   -2.10070292040506    2.82989248848755
H        -3.53886421578082   -1.70168876299453    4.51057962972021
H        -2.98230589533534   -3.00927355498142    3.45465719233905
C        -3.83762598961582   -1.53704227555061    0.59826740154559
H        -1.83969844026617   -0.71859529190831    0.70412324717718
H        -1.96587182768104   -2.43230419421312    1.17518863252372
C        -4.72212567681246   -2.51580535787137    1.36565569476651
H        -5.31340676333532   -1.12327612217602    2.89416807210687
H        -5.44912804139274   -2.81623065567451    3.37619978543296
H        -3.74705218821263   -1.85225027114734   -0.44267305852263
H        -4.29600608740405   -0.54693271926262    0.61065817902816
H        -5.71557736658571   -2.54785576707662    0.91581098539311
H        -4.29516640963290   -3.52003062527911    1.30281374359047

