45
CSD_code = CDBRNI | q = 0 | S = 0 | Stoichiometry = C8H18B18Ni | MND = 10
B        -4.09177578007279    0.93198912029871    3.34975244001308
B        -5.69173151986833    9.43980239287636    4.00897130196968
B        -5.24744675446925    1.59985307763148    4.49053866865422
B        -4.13278373369799   10.03205988713308    4.49576496496917
B        -5.84236699011412    1.11440538229423    2.88815196523142
B        -5.16417547148887    9.32556928668672    5.74083343878642
B        -3.23249491494875    7.39997767031640    4.65049321859353
B        -4.23048018491615    2.55133284122723    0.98612928666421
B        -3.20402855275326    1.99381862475473    2.25139775059379
B        -5.75067977465283    7.79801167850349    3.40750922640667
B        -3.79926047738056    2.64512986135975    3.84816359883600
B        -4.28095796142847    8.80891060578339    3.03092398255075
B        -6.41055163536209    2.59831822839025    3.53278054320701
B        -3.45576853820786    8.83560299773349    5.71207142085559
B        -5.69067327402900    2.69600978292295    1.90737227258696
B        -4.66106943875855    7.59921881324143    5.92287217939357
B        -4.61742520692504    1.04462264373870    1.62668497109722
B        -6.16826752609524    8.07597651963000    5.08123096763577
C        -4.14946231512054    3.40873386727910    2.33148444528697
C        -3.98299654258787    4.77329866050501    2.40647548918863
C        -4.09002078504283    5.95417147149652    2.73550617235672
C        -4.25048211671830    7.14573559685983    3.43916794294563
C        -5.28121761178729    3.21709033144267    4.58649158029682
C        -5.46067206356395    4.36154320562647    5.10767162291022
C        -1.70841371091118    9.01022796394793    3.57080951730926
C        -2.87030600663529    9.04095551731156    4.14154372127394
H        -3.56900868209061   -0.05312324676545    3.72828618829593
H        -6.47684804287918   10.21429669168023    3.59643888674729
H        -5.42432053104954    1.08838997985849    5.53230510443498
H        -3.84134775536748   11.16459962906497    4.38342003028679
H        -6.68933599845493    0.30856780597276    2.73856781000367
H        -5.57598342927890    9.98024669390306    6.62635896351498
H        -2.33903910197042    6.65887453977757    4.82716422922015
H        -4.01198671644594    2.99609296891993   -0.07320123492627
H        -2.03782460415384    1.99657640754827    2.11512870757441
H        -6.46737936582596    7.44548513152797    2.53250907387529
H        -6.46470954597877    3.22863545152030    1.19125163264430
H        -4.02736270807620    9.10407296216699    1.92364391300093
H        -7.52433143116656    2.87157516090819    3.77792216995632
H        -2.64828712197453    9.08549477119124    6.52753398775085
H        -2.90976362561656    3.04709257033644    4.50735275614376
H        -4.61874287876280    6.98066168423638    6.92251738720019
H        -4.64739098051658    0.12289102718418    0.89584618018947
H        -7.27447654660450    7.87348745061086    5.44690267835298
Ni       -5.47555204628396    6.14841629138666    4.58095884612831

