38
CSD_code = CDMPRH | q = 0 | S = 0 | Stoichiometry = C13H18ClNO3PRh | MND = 4
Rh        1.23741948835417    6.44084107650546    4.77132252339356
Cl       -0.47581732861253    7.09961986536159    3.43042224777274
P         2.52870311359888    6.11714897546025    6.57764139117157
O         1.80986983794207    5.23073480435703    7.73425337814951
O         2.66167840282024    7.57012228458045    7.32270813684364
O         3.03470422069049    5.52915291608357    2.58603491552876
N        -0.04650935858555    7.12467717911013    6.36971861191611
C         0.56806946432127    5.64198981577727    8.27132286623547
C        -0.51501791055907    6.02912735442932    7.24242412503908
C         1.87152434322796    8.62420600856185    6.80510873859416
C         0.37043456401610    8.37464570410340    7.01944079667718
C         2.32696820161078    5.88171621284110    3.41892594230015
C         4.22664925578934    5.51735284032951    6.78489591050568
C         4.64593196035763    4.69269057584215    7.81709057960775
C         5.97105974982249    4.29725082510800    7.88013677753718
C         6.87276435077947    4.72209021876649    6.91854588200763
C         6.45267438830431    5.54218641084419    5.88316960824151
C         5.12872798876438    5.93271025960016    5.81377855293165
C        -0.83111142518844    4.83137160149841    6.33974373895441
C        -1.78839655536107    6.43383451749770    7.99781536061646
H         0.20605497949673    4.79252114220359    8.85853395048948
H         0.74401362566094    6.47854535071572    8.95893112697591
H         2.05869521840569    8.73265670295458    5.72078327366159
H         2.18556354276214    9.53392367529658    7.32308684641759
H        -0.17139550612668    9.22213973181019    6.59065382090665
H         0.17149704511063    8.34808721706486    8.09397856398638
H        -1.17428295257554    3.98836866358966    6.93457185716453
H         0.06365051586034    4.52064786989156    5.77970493048055
H        -1.61021909912930    5.09411894269990    5.62524901609793
H        -2.55422654233459    6.74250513511938    7.28958651973369
H        -1.61164837897454    7.25195269306930    8.69197362891120
H        -2.17170224385992    5.59075828278988    8.56619105683231
H         3.93582296284388    4.36484214534864    8.55963087817219
H         6.30251730903600    3.65414484126063    8.68213719127018
H         7.90529915065966    4.40986664588669    6.97275687893725
H         7.15523090097811    5.86848647393019    5.13111279025423
H         4.77438435170133    6.56089858480178    5.00593888451896
H        -0.80548163160696    7.32516645490532    5.70307870116513

