106
CSD_code = CDXPRH | q = 0 | S = 0 | Stoichiometry = C54H45ClO2P3Rh | MND = 6
Rh        4.08808140175527    4.34702012592683    5.46557460500394
Cl        4.31918921066267    1.97398024249083    5.48902162406460
P         1.79950797781729    4.04194370488159    5.52920052952520
P         4.73627636154796    4.74755641756705    7.66144609153397
P         6.20481240840131    4.16997117213323    4.53576244235522
C         0.99184754448341    3.34625929931365    7.01665518695389
C        -0.24885511164493    3.78481295594331    7.46228032006961
C        -0.83555796611749    3.19823412817808    8.56977111583454
C        -0.19547564160798    2.16753241274452    9.23725243755718
C         1.04478402461495    1.73021899723405    8.80166119751943
C         1.64067087701297    2.32203718677367    7.70289198692724
C         1.35431004950276    2.80745662529333    4.25653251388693
C         1.03983297255665    1.49443055588226    4.59047960160080
C         0.77003690712465    0.56929996350049    3.59733248840453
C         0.81095890644350    0.93976898871725    2.26432373551775
C         1.12453892362658    2.24574721314887    1.92498015074688
C         1.39721176528453    3.17513930528406    2.91145134020122
C         0.73544844617667    5.46689160519136    5.15838646550495
C         1.04411498766394    6.68318329277885    5.75672378057904
C         0.24705142773661    7.79088285797545    5.53324984988953
C        -0.86762658280334    7.69001880783196    4.71797489741853
C        -1.18648477961299    6.47587102187463    4.13134565923485
C        -0.39121497783080    5.36512572040472    4.34861270974992
C         3.40900974233200    5.58249027003100    8.61474564322950
C         3.17331186659976    6.94886814161863    8.49959837034740
C         2.11219838546668    7.53243693673404    9.16987543720840
C         1.27029010231449    6.76130295358116    9.95266530824185
C         1.50406720225776    5.40204717388982   10.07810358564983
C         2.56595282150351    4.81631592198556    9.41558929127233
C         6.01761508320307    6.06493882429497    7.70343578824151
C         5.92587869895373    7.06825384820826    6.73964150353844
C         6.84614225913180    8.10042753454258    6.71010500946723
C         7.88235523063089    8.13388668616627    7.62730630317020
C         7.98913095801348    7.13268583459932    8.57776097064337
C         7.06242810195991    6.10550566260207    8.62165610846543
C         5.33095798671107    3.57168949343814    8.92796172662008
C         5.72592811158479    2.29290470140339    8.55600295406790
C         6.21193454737490    1.41030375648478    9.50631477185356
C         6.30680138889673    1.79634758761351   10.83128878653675
C         5.90242871036001    3.06772111039152   11.21076719192799
C         5.41545798067822    3.95202041894172   10.26782103444613
C         6.15110466464032    3.47393704818633    2.84709498991302
C         4.99599448798540    2.91746938045903    2.31470655622303
C         5.01114526932115    2.37448762163157    1.04120232367941
C         6.17519586500739    2.38428486806167    0.29342990665146
C         7.33136833156673    2.93964035110948    0.82085308720618
C         7.32265916002164    3.48190428056693    2.09101943236347
C         7.35345663299384    3.03323116307934    5.37283985045471
C         7.56606363166347    1.74299499354952    4.90014798380596
C         8.38042494603442    0.87347736679704    5.60303623848950
C         8.98723406236718    1.27853552793278    6.78015932195762
C         8.76814220884255    2.55797359911071    7.26285567602732
C         7.94799729292533    3.42715476648342    6.56810081878091
C         7.19504009696674    5.66428506556317    4.18606990729305
C         8.51640091154584    5.85748784462043    4.56833506792656
C         9.16798715578904    7.03118139454851    4.23073436974211
C         8.51340712017274    8.01292848650263    3.50710390823255
C         7.19943679272752    7.81828838245692    3.11138404197628
C         6.54305808824546    6.65076403566509    3.44848796414594
H        -0.75859185959976    4.58559205833967    6.94625521725610
H        -1.80022648078251    3.54633826518311    8.91033908329822
H        -0.66103670441190    1.70802460375824   10.09725024292983
H         1.55277891756114    0.93036466443349    9.32147675457525
H         2.61621922069773    1.99205283348321    7.37010785316542
H         1.01370954444793    1.18739129973348    5.62494786880473
H         0.53214171080665   -0.44883554805127    3.86906872527608
H         0.60327755930195    0.21286960630246    1.49234430956496
H         1.16142413146602    2.54380987722907    0.88674535910852
H         1.66338078214532    4.18751871434999    2.64471071548318
H         1.91824604703834    6.75559715638600    6.38651783672266
H         0.49794708982616    8.73497829612513    5.99464120093579
H        -1.48938180873600    8.55535138682489    4.53914633760888
O         3.38546680993229    5.08404253249914    3.79034358468322
O         3.68424111418593    6.07657541973064    4.67296461145608
H        -2.05977853131359    6.39300086300784    3.50016966269164
H        -0.64951902243434    4.41968426853411    3.89250511419829
H         3.82296786113905    7.56112738380455    7.89061558355536
H         1.94165797366161    8.59520527268558    9.07623827590319
H         0.43891433171101    7.21895398292496   10.46803522941514
H         0.85771371064596    4.79279548513983   10.69254529000624
H         2.75054096647048    3.75774278017310    9.52509458468908
H         5.13725613722267    7.03290844307077    5.99854697871042
H         6.76000498479844    8.87122250896212    5.95885188406622
H         8.60893103271382    8.93230508420780    7.59728452874508
H         8.80089768336723    7.14757464950054    9.29083922562529
H         7.16905184787334    5.32663117626979    9.36269490317367
H         5.63501577482538    1.98111665866619    7.52666242701327
H         6.51538749438299    0.41880005430935    9.20482621279253
H         6.68767908914027    1.10900722390126   11.57273526319449
H         5.96711048114542    3.36993722074757   12.24640145632698
H         5.09078655299504    4.93877608790303   10.57006134312372
H         4.07945521161592    2.90961218882180    2.88738818274519
H         4.10778236016255    1.94088143507275    0.63783101587237
H         6.18591237119207    1.96064156079321   -0.70036968363352
H         8.24216866246365    2.94835439620873    0.23953982688099
H         8.22549631343667    3.91163451291778    2.50436580913492
H         7.08054133177012    1.41353462093354    3.99356567449242
H         8.53550219971957   -0.12910624042082    5.23214864350675
H         9.62192962780884    0.59574179913740    7.32589571379920
H         9.22669612435891    2.87699697219853    8.18791654870209
H         7.75883906907695    4.41810402432131    6.95579329628060
H         9.04530878377326    5.09319693773572    5.11901022184764
H        10.19563853057805    7.17587705918586    4.53216621238391
H         9.02826723369476    8.92692544950064    3.24827519390395
H         6.68714080980893    8.57896059081660    2.54029812768798
H         5.51544189874091    6.49732874868547    3.15089559246232

