56
CSD_code = CEBFUN | q = 1 | S = 0 | Stoichiometry = C22H28N5Ni(1+) | MND = 4
Ni        6.38635238043446    3.67567341575868    8.27664123104514
N         7.66393923298097    3.02232626804356   10.73135369611444
N         7.97058968435485    1.24342013749268    9.56948773248675
N         5.36326296210861    6.31622149655846    8.53479320347030
N         4.76589576829350    5.78868676229179    6.54165265883564
N         6.26668849211360    2.61722854626043    6.81453518501520
C         6.52149787871447    4.76771305230296    9.77257923260313
C         5.98305430281101    6.04970858481051    9.76601218589162
C         6.09050856542322    6.88214815235203   10.86909727941010
H         5.67239217857271    7.87637379511903   10.86071436323845
C         6.75294785830057    6.41066677373988   11.99373032865511
H         6.84305089817359    7.04978124341476   12.85766908237386
C         7.30431129817600    5.13772296688584   12.03293057129831
H         7.81703523456804    4.79383310755101   12.91737480854970
C         7.18195733643270    4.32810729600278   10.91452107604910
C         7.41173020539344    2.46623770787825    9.51478012670458
C         8.54867491066143    1.04109474718254   10.79163165886296
H         9.05219741745892    0.13091908842645   11.04441758387822
C         8.35846536932056    2.16730309506116   11.52686606525537
H         8.66204853116306    2.40379145281118   12.52524103849981
C         7.92184066505169    0.24504900385339    8.53052129383216
H         8.72793784351707   -0.47022945584024    8.69960910839038
H         8.09080941536952    0.74017872396942    7.57093420036433
C         6.56582058926228   -0.47094256193953    8.51681235889048
H         6.52391570826758   -1.11257153552117    7.63521085231260
H         5.78258344920223    0.28673053906420    8.42829461326611
C         6.30765771873524   -1.31656588664269    9.76482755912238
H         6.43476202142785   -0.70275684948755   10.65933022720230
H         5.26638454966510   -1.64241001518875    9.74273668526622
C         7.20131222702401   -2.54835192910332    9.85145174991968
H         7.08835320375160   -3.16491714842100    8.96275316223168
H         6.92658594109058   -3.14659699340857   10.71578487225818
H         8.25078817123324   -2.28203999529177    9.95154425738041
C         5.41111259330494    5.30887961170621    7.62070834607627
C         4.32333708802741    7.05982216201982    6.78035745243681
H         3.78431053464076    7.62491287067692    6.04824086804469
C         4.70348897628163    7.39633129393775    8.04024199824316
H         4.55271654698547    8.30032578075853    8.59243389523098
C         4.50001426191983    5.06144407007238    5.32508949713097
H         5.41174801304691    4.53423461088534    5.03229914129253
H         4.24352686236854    5.78035048898427    4.54392839151702
C         3.35209026868695    4.06490227596885    5.51856937528748
H         3.27711238113031    3.44626884983161    4.62272927962460
H         3.58979374965996    3.41601252895805    6.36574934244485
C         2.01123983059544    4.75230985204085    5.76867807593920
H         2.07586723332965    5.36967936126558    6.66735345340839
H         1.77586402179143    5.40653447201217    4.92639816671723
C         0.89158075640539    3.73418168212458    5.94384287231424
H         0.78744667294473    3.12067229103607    5.05199468229561
H        -0.05387937961544    4.23817564083237    6.12299725459722
H         1.09661045356713    3.08145918196275    6.78947620638488
C         6.17126833442321    1.93811837748121    5.89156085059464
C         6.04464968267160    1.09415841853682    4.75110069041604
H         5.06037830368276    0.62530673956592    4.75313055607328
H         6.80978831982068    0.31802103660336    4.77333193231977
H         6.15938248527783    1.68016481675179    3.83904762293672

