66
CSD_code = CEBKOM | q = 0 | S = 0 | Stoichiometry = C23H39OSi2Y | MND = 14
Y         1.58217660516931   15.09534158483139    4.95163308991723
Si       -0.18349487014918   15.04670212181638    8.19124837456713
Si        1.73444308782162   13.89690490471352    1.53077136637260
O         3.17545496035926   16.78377402205917    6.12611310207218
C         3.58338688621255   15.78082274049027    2.83674386321250
C         3.58769748996064   17.14656523996762    3.04166556323871
C         2.26363903705127   17.61940346756295    2.97898246342943
C         1.42151586832710   16.54322701280319    2.74108625170374
C         2.22830733288004   15.33595873332735    2.64364504620806
C         1.25442014814705   14.53393047772670   -0.20710452364529
C         3.17329942081591   12.65194955344183    1.34580562800785
C         0.21568184006050   12.98951387344162    2.27587079775280
C        -0.40949461802362   16.89086433152015    5.93703592516775
C        -1.18804703761036   16.94528189914320    4.79556925397072
C        -1.59864223744961   15.63986870317603    4.46761194209755
C        -1.07694505357535   14.76315922533622    5.40473089447226
C        -0.30124198155625   15.52088942747146    6.37375873381676
C        -1.61452472185215   15.84219432928265    9.18016093930978
C        -0.31736354707052   13.14862544268459    8.38957681146583
C         1.46213302202796   15.67182746650157    8.95786390436435
C         2.50722658387891   13.03541703610360    5.49921649824616
C         3.30904829882183   13.11681047222291    6.73011498305086
C         4.63834287469214   13.23347775527591    6.78669590939808
C         4.58828933998202   16.55936793425862    6.29589878767942
C         5.11586320436237   17.75680105237483    7.07553151462615
C         4.24081542332970   18.87669795684817    6.52073043125835
C         2.89458017784492   18.17362391479469    6.38017409154333
H         4.45236371127365   15.14303792611039    2.76594376976040
H         4.46005208140450   17.76339198866880    3.19105289146949
H         1.96194279228240   18.65237288813744    3.06046173920963
H         0.37979557898165   16.60803503626587    2.45280479242355
H         0.99957002365331   13.71602160709298   -0.87382030342310
H         2.07166475419694   15.08782958997381   -0.65778753852771
H         0.39871597526633   15.19962419800662   -0.15796425637917
H         2.87188552779434   11.80714208141793    0.73530148469124
H         3.50316606216737   12.26279235556692    2.30395289531565
H         4.02820875666658   13.11461998220404    0.86457550724137
H        -0.17483418979377   12.24788859325312    1.58515223902406
H        -0.59077818978629   13.68789748219291    2.48856581955328
H         0.46484488440881   12.47154054408300    3.20220237752936
H        -0.04793379062848   17.74189507576569    6.49662686962558
H        -1.45527695251083   17.83762577505644    4.25352715986622
H        -2.23856885739010   15.37811749600956    3.63948958497207
H        -1.33572154792611   13.71629514158123    5.50949459918079
H        -1.56482374652443   15.58100128974541   10.23273735093208
H        -2.57727119516677   15.51429606931361    8.80162238318361
H        -1.58959947470125   16.92472097966459    9.10548749506461
H        -0.08040967325436   12.84772392295143    9.40506949921355
H         0.35146750413296   12.61403550722351    7.72215305801276
H        -1.32771171447422   12.81273249298310    8.17978486815310
H         1.41264218408830   16.73837292295904    9.15739298236814
H         2.31330436264809   15.49207561246743    8.30394886265332
H         1.66195807632409   15.17945937812095    9.90463773568754
H         1.70281742524308   12.29949918325840    5.64306058166487
H         3.14739013702403   12.67928784331165    4.67955810544125
H         2.75835435122011   13.05089669812946    7.66595183250231
H         5.24018727719081   13.27041105599564    5.89157538627066
H         5.16826286488396   13.28267017992621    7.72311271455558
H         5.05623281727879   16.50349296495166    5.30523321205433
H         4.72088577308028   15.60211441964257    6.80996242791005
H         6.17762473909690   17.91991929795502    6.91004882850987
H         4.93632987989732   17.62723782281713    8.14349034151617
H         4.18468396428166   19.74323261207753    7.17489645950243
H         4.60658738862661   19.19160832530581    5.54350410360379
H         2.32055285102369   18.23826897970580    7.31310035530954
H         2.29497005352338   18.56481400102080    5.55436014110189

