108
CSD_code = CEBMAZ | q = 0 | S = 0 | Stoichiometry = C57H42N6O2Zn | MND = 4
Zn        7.30298752996981    0.27991964698425    1.39804035121237
N         8.43884743753130    1.95054929347487    1.34758452191137
N         7.68469571020305   -0.03774628689916   -0.56515887138730
N         6.11883611443536   -1.35003756504599    1.43473264383341
N         6.95412522908920    0.54923038226279    3.38309510729283
N         7.16072504864441   -0.07698671399685    8.85326949805419
N         6.28166540844579    0.41729946316958    8.00673891202269
C         8.63983178440244    2.82166793948718    2.37375366939863
C         9.31304040138544    3.99487977332307    1.89177988745424
H         9.55427256850870    4.85593564912740    2.48367282330996
C         9.54826374008275    3.79622412707496    0.57357369767484
H        10.02146757085400    4.46278675674719   -0.12070996011679
C         9.01339472343484    2.50418421493238    0.24565346744086
C         9.09623706736605    1.91608664240253   -1.01623581346561
C         8.50387705669770    0.70146798251799   -1.36064461881484
C         8.66781473103480    0.04973545037416   -2.63000954288930
H         9.29109628987877    0.40111595996900   -3.42893680400785
C         7.91529513455521   -1.07482680933791   -2.59244135355613
H         7.80390551215658   -1.82071782575806   -3.35493320252697
C         7.28656094771633   -1.11048104930014   -1.30152757480347
C         6.38714645367880   -2.09266294824795   -0.88904026549402
C         5.81608349950527   -2.15650299561383    0.38202316726653
C         4.80253488576054   -3.09824138335216    0.76578962514570
H         4.36232675810465   -3.83093350173775    0.11815075248423
C         4.51551301614601   -2.85518150182907    2.06579107224085
H         3.79949981842455   -3.35706448432029    2.68670284038036
C         5.36140426899920   -1.77126468602717    2.48374410991426
C         5.41148600488759   -1.28910871392310    3.79208185468767
C         6.23896997466154   -0.25268996367105    4.22436486809979
C         6.46803850079873    0.15787994974997    5.59308569578799
C         7.30792765984879    1.22555453910977    5.53075776113729
H         7.73234384258366    1.77554292795316    6.34703287059554
C         7.56235261601117    1.49062511185729    4.15044045730133
C         8.27997127978635    2.60125818104419    3.70130637920257
C         9.86991500100491    2.62513742297372   -2.05688348376828
C        11.22736146516174    2.87622056904583   -1.87811284584365
H        11.71210953088083    2.53899292285058   -0.97335661246352
C        11.95262287442559    3.53538166871949   -2.85375081123730
H        13.00688598911871    3.71943025148565   -2.70645691720030
C        11.33102824894377    3.95842907115529   -4.01684389461208
H        11.89767606398515    4.47548075642384   -4.77701467110418
C         9.98005805072489    3.71570594188731   -4.20139052125359
H         9.49012215396336    4.04628551421293   -5.10568011744977
C         9.25400124951177    3.05047786940861   -3.23033620615673
H         8.19851470842133    2.86642913770146   -3.36966928131924
C         6.00373252575341   -3.13321342463076   -1.86632400618155
C         5.36068920253271   -2.79068941380678   -3.05216103538209
H         5.13261241946942   -1.75310629022286   -3.24903624852254
C         5.00206209846076   -3.76832203799383   -3.96231131254050
H         4.49846716662781   -3.49125292545008   -4.87702353388072
C         5.28630773961328   -5.09882173465283   -3.70343078015608
H         5.00828747080049   -5.86108594254793   -4.41613312383392
C         5.92792471069865   -5.44814977660790   -2.52680151378401
H         6.15386208806526   -6.48433058526635   -2.32121061802877
C         6.28149114795540   -4.47327952607340   -1.61193158952913
H         6.78767587981543   -4.74304872919174   -0.69638315764227
C         4.47450198714804   -1.93155779259747    4.74473300684008
C         3.31370263483138   -1.26086391900131    5.11991662118584
H         3.12668537462014   -0.27047156456978    4.72916837739998
C         2.40689420401904   -1.85694855780946    5.97804487165772
H         1.50905104876266   -1.32830801873227    6.26309670336442
C         2.64884661713352   -3.12985929519036    6.46833906852391
H         1.94156423608707   -3.59438870547696    7.13903784816245
C         3.79566417046677   -3.80740378331642    6.08974009918733
H         3.98413716439635   -4.80273389963667    6.46444385186013
C         4.70275450127243   -3.21441968301934    5.22866392676972
H         5.59480361025680   -3.74315392029347    4.92686696653998
C         8.65208969574403    3.61021973150761    4.71348894086185
C         9.98167378900624    3.96908224094269    4.91616901404334
H        10.75352571160321    3.49603835996874    4.32641007491625
C        10.31598713816425    4.90312427596097    5.87988613381398
H        11.35205260217010    5.16887334712878    6.03189033975319
C         9.32893307124248    5.49219086822192    6.65251750659941
H         9.59290985058652    6.21969821446642    7.40570688102097
C         8.00310388135387    5.14272783789201    6.45733803727370
H         7.22727677383474    5.59306220921420    7.05806067658422
C         7.66635830002476    4.20882666243133    5.49577408608997
H         6.63096743140748    3.94116334266748    5.34269296614931
C         6.00407501764411   -0.47854155968349    6.86716894706133
H         4.93388519464489   -0.69866838120385    6.84564796755650
C         6.83325680264349   -1.72508550591047    7.23118850132292
H         6.21743952469452   -2.60405821716036    7.42229673835003
H         7.56226464242098   -1.98265293612055    6.46196286287289
C         7.51968036188753   -1.26210410953624    8.49774646564801
C         8.47187821196350   -2.08964137406115    9.22105237167798
C         9.92148620862728   -2.23884486951852   11.05558983022486
H        10.73591995964047   -2.55420315260995   10.39247681332678
H         9.42999613970363   -3.14232388936464   11.43608854091517
C        10.43465651424144   -1.37069092372282   12.18879517851451
H        10.91000510755194   -0.47937936571685   11.78873670277559
H        11.15713742418561   -1.92740569725699   12.77873858956683
H         9.60988366540271   -1.06603537575725   12.82697645334698
C         5.78707452098282    1.69972768683791    8.13846123944741
C         4.80206797579399    2.19154385537308    7.28186278893154
H         4.39400004006071    1.56821437997607    6.50200684574508
C         4.35212827196807    3.48923062294765    7.42314723512558
H         3.59299140680878    3.86053469244174    6.74910490360660
C         4.85665357855316    4.32837480391742    8.40958768563116
C         5.82705246830220    3.82360660379345    9.26759653393270
H         6.23227887942908    4.45591438481676   10.04459907841686
C         6.29018266019593    2.53120637045346    9.14053220893789
H         7.04875653396245    2.14351946411264    9.80131751649159
C         4.35030297064100    5.73225384709311    8.54883217456944
H         3.37832405025220    5.73396047956618    9.04340705515853
H         4.22667575729688    6.19777785979619    7.57256353981974
H         5.03271830975240    6.33491464055610    9.14360242696008
O         8.97772735858535   -1.48141295370445   10.30180684066518
O         8.77677027654201   -3.21339763304854    8.87863421987681

