38
CSD_code = CEBNIH | q = 0 | S = 0 | Stoichiometry = C19H13N3NiS2 | MND = 4
Ni        4.45914405234805    6.36082987944973   10.17848579408236
S         4.45810480922094    7.37914714688297    8.29844377920389
S         4.62167224394397    8.39742025681022   10.80568537914309
N         4.99843892729161   11.93994764844795   10.51052837079422
C         4.75191773747077   10.62027965403788    7.29530110394718
C         4.32171027005652    9.81843297969628    6.23762284219685
H         3.94790536051765    8.82518458774912    6.43075648854743
C         4.35691512433594   10.29058957484897    4.93993591968963
H         4.01967798542701    9.65531124105453    4.13344060152360
C         4.81535898107254   11.56889065400857    4.66822007643266
H         4.84091913350690   11.93363071157647    3.65180982496551
C         5.23668602219042   12.37798689264605    5.71112057486193
H         5.59264809918632   13.37825234859348    5.51077603876210
C         5.20498164228780   11.91245322269877    7.01001386327951
H         5.53717383492690   12.54795999108256    7.81842488747452
C         4.73664986972550   10.16643710068173    8.68359565131605
C         4.61303672084783    8.88961092027218    9.13552384409192
C         4.88516360618257   11.14885968665931    9.68508110920426
N         4.30585752180413    4.51544395281215    9.53375980132268
C         4.21531240419306    4.09497045708113    8.27400792217929
H         4.25196780197890    4.85898736808546    7.50706761138445
C         4.08162581824350    2.76097002085862    7.93427619938879
H         4.01272957702455    2.47173938178315    6.89836495099152
C         4.03763125270680    1.81549594279911    8.94950852465368
H         3.93122465382934    0.76553992697480    8.72368087678508
C         4.13265920549583    2.24344036890552   10.25991797667486
H         4.09873278306192    1.52594474428570   11.06313378278389
C         4.26888229738718    3.60394076809079   10.53213661145624
N         4.46955929707324    5.50490707751010   11.94732446634753
C         4.37942342475036    4.15773758935500   11.88527605421066
C         4.39727752687072    3.38138709021310   13.04320396483928
H         4.32939168834613    2.30760735308134   12.98351673770194
C         4.50620666217799    3.99767801633961   14.27534420399076
H         4.52198690855201    3.41004104309316   15.18050152178419
C         4.59508935949086    5.38173941882588   14.32424942285469
H         4.68073053772768    5.90349213389635   15.26329607032288
C         4.57336533966505    6.09133417102585   13.13670275107125
H         4.64184151908233    7.17237867778677   13.13776439974141

