61
CSD_code = CEBNON | q = 0 | S = 0 | Stoichiometry = C26H30Cl2N2Pd | MND = 4
N         9.96444086268958    5.22817005889974   10.60895095127479
C        10.95811110695396    4.54559308126215   11.07280234384591
H        11.94617610525470    4.59078095345367   10.61814945118968
C        10.72786430400881    3.72588426070503   12.22566092257598
N         9.43526809003741    3.66370451607780   12.62476390690519
C         9.13481669538857    3.04527061002477   13.76850936399870
C        10.11839720215509    2.39379810924652   14.51387772109885
H         9.84090907684745    1.91059634851128   15.43657648904152
C        11.43295414918236    2.38496188481760   14.07302585584777
H        12.19692738606057    1.86889841480656   14.63425687161467
C        11.75002053221777    3.07575151193022   12.92061806146180
H        12.76320210221100    3.13428358316672   12.55588404510585
C         7.75359709544209    3.09601289960662   14.29428858819798
C         7.03639001511159    1.90817858320760   14.46705211651570
C         5.77147202713367    1.96365776123489   15.03210572261571
H         5.20632255652507    1.05099356395533   15.15102040915315
C         5.22497974914487    3.16991776475364   15.42650203185575
H         4.23786654428020    3.19964647766499   15.86274854941974
C         5.93412533585914    4.34109782014959   15.24070039143969
H         5.49716090532637    5.28632858711687   15.52695494771662
C         7.19765483418818    4.32573660760690   14.66887143454592
C         7.91242735801772    5.62637812754494   14.43353751748647
H         7.53202717724262    6.39306302677773   15.10490906773425
H         7.71338552027239    5.96440946962208   13.39640183337398
H         8.98968398434766    5.53639170936774   14.57927054198703
C         7.58693439650576    0.58976001547620   14.00781665893911
H         8.20413277829198    0.71109299190381   13.12050591678003
H         6.77136445280197   -0.08810446019239   13.76895911642111
H         8.19136549448213    0.12492826215094   14.78778417254107
C        10.12510292704840    6.03307900469730    9.46572889080959
C        10.59118817967159    7.34612833100480    9.61596659986195
C        10.71786765219109    8.12539336066310    8.47707230985352
H        11.06029140086642    9.14391279222132    8.55770195126993
C        10.40942635786380    7.61327350214656    7.23009765240127
H        10.52241335385906    8.23326690114712    6.35341590964232
C         9.94534489503896    6.31887356985367    7.10207265025289
H         9.70079318342308    5.93834896637069    6.12346257257784
C         9.78045494854109    5.50684589530317    8.21477424121593
C         9.26007576306535    4.09017809876609    8.07324891265424
H         8.91769803025258    3.71562162409954    9.06376264157667
C        10.38237970870965    3.17390571052570    7.57641199543869
H        10.01962628023236    2.15313082192213    7.47835752863948
H        11.22359281183956    3.17614071351916    8.26839630772104
H        10.73947872870827    3.50863530884254    6.60456964621342
C         8.04447496541007    4.02199415121630    7.14779541074177
H         7.29110685132505    4.72964853517376    7.48512245678957
H         7.61704657665599    3.02209930085786    7.17883957584697
H         8.30864207478325    4.24717224178087    6.11789727501834
C        10.87434999075472    7.87848265435810   11.00466258649168
H        11.35712064520026    7.08293570480019   11.58762494739528
C        11.80838983954476    9.08705140211321   11.01807183982362
H        12.08972791193319    9.31792657662395   12.04348188854729
H        11.31880127114610    9.96347311742840   10.60184244342660
H        12.71441533577726    8.88482144694354   10.45078348257878
C         9.54547480209867    8.22920726464863   11.68417881160908
H         9.71816832761935    8.56767323732737   12.70376743927733
H         8.88009788501208    7.35909392537087   11.70772643512911
H         9.04157289031077    9.01765001220427   11.13086196781183
Cl        7.04773864549564    6.07759130686977    9.96799985768863
Cl        6.30849828432255    3.61517622178469   11.66270189131720
Pd        8.21526164325738    4.68718575858961   11.28169687979891

