75
CSD_code = CEBPAB | q = 0 | S = 0 | Stoichiometry = C32H32CdN4O2S4 | MND = 6
Cd       -0.00011088324288    4.85808148029008    6.00240751488081
S        -0.42665944618381    3.41602279923349    8.14341966014412
S         2.09516722178487    4.85569864484130    7.61378430290494
O         4.47323853989030    5.23748768131393   11.25147829026088
H         4.99364726124359    5.34930527312243   10.44763131583496
N         1.69131882423054    3.32895703566967    9.71973648239064
N        -0.81632057696820    6.84896139480180    7.10206965152143
C         1.16679328352906    3.81862319456189    8.59030778338210
C         3.05317252718486    3.62162111489788   10.10043751740564
H         3.66372582182704    3.70130056193378    9.19508043243032
H         3.43012093724457    2.79645131521481   10.70907020985310
C         3.15164116567864    4.94059986922348   10.88653824059528
H         2.71622588482206    5.74668286623140   10.28039331132147
H         2.59413081655955    4.86587202681818   11.82354946817217
C         0.95379969317504    2.46172809529229   10.62125294409986
H        -0.10087478722648    2.50031773227383   10.33740429436808
H         1.06406705618890    2.84850939833175   11.63893237557367
C         1.46035501825978    1.04481836894212   10.53871967968433
C         1.36471715377848    0.34934491765852    9.33919616010945
H         0.90657903956923    0.82620273880729    8.48544107942057
C         1.84720894607470   -0.94242667833640    9.24068941175749
H         1.76843833271819   -1.47519376319888    8.30465362541506
C         2.42836045824314   -1.55319761965080   10.33993778528282
H         2.80403229483390   -2.56288388726325   10.26309716244610
C         2.52543822077313   -0.86697876232987   11.53761051329767
H         2.97818048779086   -1.33822546462315   12.39780650384058
C         2.04730836792541    0.42875623094203   11.63502686564070
H         2.12642741102729    0.96233915904516   12.57222959013970
C        -1.59652708298190    6.83815608345222    8.15708125123862
H        -1.87730685813284    5.86112340829895    8.53362833997979
C        -2.05157436066373    8.00550503298052    8.78058470583312
H        -2.69093023019258    7.93900130460436    9.64667051350169
C        -1.66929335060047    9.21987173107916    8.26714322587835
H        -1.99716485184578   10.14687816321598    8.71587770094522
C        -0.83586876747149    9.25777272875016    7.13626391431407
C        -0.42841531273759    8.02234991272695    6.58116788143294
C        -0.40082632176039   10.47907669541945    6.54696900508287
H        -0.72973807838016   11.40567264286479    6.99450102647401
S         0.42656992717979    3.41577870442411    3.86223075076523
S        -2.09538053571585    4.85509314529540    4.39249497942517
O        -4.47454454548940    5.23730393527045    0.75580461500776
H        -4.99471540187727    5.34864442658754    1.55985199472050
N        -1.69158127514500    3.32904748266091    2.28609724322952
N         0.81687712237785    6.84858868415532    4.90270239423191
C        -1.16682364382070    3.81863687727498    3.41546357116670
C        -3.05361806547189    3.62145672719571    1.90587135755868
H        -3.66394374344858    3.70072161638077    2.81142130626332
H        -3.43055017236728    2.79639985061856    1.29706739430410
C        -3.15276337868049    4.94065931173191    1.12023742379069
H        -2.71739555680802    5.74664131618097    1.72653434454542
H        -2.59549709941944    4.86641861529194    0.18306199764093
C        -0.95408774180846    2.46228633217490    1.38409870546030
H         0.10062827449857    2.50098278586327    1.66776467680529
H        -1.06461982928246    2.84947011773313    0.36660040080525
C        -1.46031413950496    1.04523028488018    1.46610166122550
C        -1.36429485072918    0.34925708183291    2.66530297820409
H        -0.90609607767698    0.82585600927540    3.51916644429014
C        -1.84642907507745   -0.94268061616691    2.76333098529490
H        -1.76731855411215   -1.47584960912330    3.69910712052079
C        -2.42761401115351   -1.55312016137617    1.66392252651198
H        -2.80302282845420   -2.56293214363792    1.74039063140055
C        -2.52511921428489   -0.86638823324676    0.46658232515880
H        -2.97790513722126   -1.33737674561446   -0.39373653263389
C        -2.04732974395012    0.42950764867301    0.36964109476903
H        -2.12678597457894    0.96348508752637   -0.56730872223346
C         1.59700790104557    6.83741155669196    3.84764642595850
H         1.87781493442114    5.86024756724929    3.47146590344602
C         2.05193951293022    8.00454000444702    3.22364882300977
H         2.69125974221195    7.93772742803071    2.35756220929978
C         1.66961212608776    9.21908589386669    3.73663124516338
H         1.99740538274365   10.14593428024499    3.28751588361932
C         0.83620501149075    9.25738157961775    4.86751252888882
C         0.42887383210948    8.02215316632511    5.42312619247665
C         0.40109372107016   10.47888797093512    5.45633537553846
H         0.72997925192994   11.40532859332953    5.00846200750311

