41
CSD_code = CEBPUX | q = 1 | S = 0 | Stoichiometry = C19H18ClN2Ru(1+) | MND = 9
C         7.67953834694268   12.07829062004913   -0.17599145636786
H         7.19003011361537   11.29230826944309   -0.73658580110520
C         7.65794205350857   13.38418596678866   -0.62979193717247
H         7.16336435208616   13.61952753782033   -1.55785572857167
C         8.27000229981044   14.37927523128878    0.12719595057705
H         8.26195368651637   15.40444648981255   -0.20649860053888
C         8.86959344975764   14.02989402145461    1.32052515634674
H         9.33431401640887   14.76562808987986    1.95669732083325
C         8.85278755552402   12.69190074921059    1.71932020119810
C         9.36494815943767   12.17710948331775    2.95601467835320
H         9.82206838386236   12.81686523360404    3.70261039275222
C         9.56217447795234   10.27780132120251    4.38280551524185
H        10.52405522988753    9.76790358671043    4.24819983773257
H         8.79090742153548    9.52210823885216    4.58302165037676
C         9.63389774669424   11.22824276985821    5.55557376900715
C         8.46606094646909   11.84257517083484    5.99565689518284
H         7.53274093265382   11.63382507222601    5.49234009060397
C         8.50516964434363   12.71400756876688    7.06861018040411
H         7.59651853224311   13.18511735919402    7.40954760691616
C         9.70694971505394   12.97429985636680    7.70831306324864
H         9.73543850677042   13.64999148692984    8.54883628783628
C        10.87033193858576   12.36443609523374    7.27173146266242
H        11.80674916618076   12.56306112230915    7.76945548988806
C        10.83639982655139   11.49478883710571    6.19393323179644
H        11.74603730800531   11.01885345234893    5.85700328884368
C         9.16192573166970    8.74063263163597    0.04769459871570
H         9.77619868673491    9.07631225156761   -0.78079687246747
C         9.77012767510713    8.30374991831026    1.23985055600240
H        10.85108171766890    8.30215549682980    1.32633791787018
C         8.97705026230508    7.73261394235164    2.26674224488649
H         9.45516497380887    7.30224281929799    3.13914236358068
C         7.58989429624960    7.67047997180442    2.12621145012741
H         6.98081645953614    7.21096621124510    2.89663012544587
C         6.97839000448222    8.09474631636937    0.91218067908412
H         5.91153909080764    7.95485846598715    0.77645914865046
C         7.76235670410449    8.58622166387431   -0.13005379399523
H         7.31473791862704    8.80216172958143   -1.09318246025715
N         8.27691949072716   11.72685981205260    0.95935796480719
N         9.19710274337535   10.91023475998593    3.13512159611843
Cl        6.32001060731580   10.70473504599814    2.83129692542895
Ru        8.22670982708287    9.90858533250018    1.76273900995602

