102
CSD_code = CEBTEL | q = 0 | S = 0 | Stoichiometry = C46H50N4PdS | MND = 4
C        10.70296168179967    4.38893998804941   21.32925672538396
C         9.53897199767135    5.11405504789173   21.68674499351498
C         9.17370695093680    5.48492583338914   23.08645338968060
H         9.45719699973767    4.67046879854780   23.75742909745647
H         8.09602215778157    5.63017570372382   23.16764797018340
C         9.89603331609483    6.76241907260638   23.52044455616437
H        10.97282557177709    6.61791458619783   23.47838760336180
H         9.62158985692127    7.02654471072970   24.53892928510555
H         9.63419746799961    7.58898039289294   22.86339567457499
C         8.90097788566679    5.41822280793568   20.50359742267295
C         7.58755829551083    6.13370993222146   20.47756842471903
H         7.46428376580707    6.72028193496015   19.57209593789651
H         7.55770110726388    6.82394874850440   21.32325808203074
C         6.42581320168203    5.14547310038896   20.60661879387782
H         6.42196162864332    4.45320765603038   19.76949968791282
H         5.47827147774020    5.67935470622234   20.61811323431545
H         6.51487234052518    4.57031474900252   21.52550128975500
C         9.69983331638273    4.86329327739122   19.43609635648501
C         9.47565405165767    4.95641668991167   18.04720910351455
C         8.28971805275552    5.71522871649218   17.58540186425227
C         8.36670972187062    7.09044936818215   17.38928422424281
H         9.29029455238765    7.60484055416664   17.61252678826128
C         7.26493355703242    7.79228202285964   16.93308266222651
H         7.33345461421812    8.85940689663993   16.78054378964105
C         6.07595377670528    7.12983371626235   16.67697424162908
H         5.21613038484496    7.67927524316457   16.32351691791306
C         5.99228330255561    5.76130190539761   16.87135454250519
H         5.06736987893713    5.24141070572550   16.66894915157959
C         7.09535201220879    5.05445060250157   17.31697658603156
H         7.04420275758610    3.98280660268269   17.44562864800987
C        10.29328121489817    4.39267598368482   17.04916402827794
C        10.23721546413691    4.44102088791712   15.60842097809792
C         9.25705716256654    5.15842000442118   14.73531768088738
H         8.29179163789655    5.23905358954861   15.22904992196461
H         9.10577642231871    4.57893898637729   13.82105073981879
C         9.74580323573782    6.55843882704076   14.35717166463380
H         9.93609135346245    7.14685833362109   15.25056715348941
H         8.99390988432226    7.07021754773780   13.76027898274101
H        10.66557651234437    6.50083301758075   13.78112540383120
C        11.30570103457388    3.70104408509576   15.13418724937559
C        11.72351201298707    3.58493157559629   13.70540704134439
H        10.91717497768478    3.92749461025817   13.05575359429873
H        11.92400476047309    2.54409313413122   13.45421562376766
C        12.96845375571050    4.43695227139130   13.43998166510423
H        12.74612954740667    5.49011290072645   13.59705865385006
H        13.31078541281059    4.30632340369241   12.41510625209155
H        13.77349958232108    4.16395089897253   14.11866807704827
C        11.99592822178822    3.17873457206211   16.27155781994982
C        13.13737004443715    2.34202773029979   16.56191538165728
C        14.04241881992142    1.47780376699144   15.87243231107826
C        14.00066289079773    1.08262906033630   14.43187929772522
H        14.95124792000967    0.63281968203524   14.14457314896101
H        13.85472351537410    1.95674197131959   13.80149387499268
C        12.87647128598016    0.07090730346873   14.19115927127319
H        13.06118512151578   -0.83741107284243   14.76093674427110
H        12.81424718698426   -0.18944520760339   13.13627499073885
H        11.91924345011288    0.47766482590769   14.51010692955854
C        14.90608340386560    0.95261879624171   16.81724202245916
C        16.02003483796739    0.01017257163555   16.48625639175299
H        15.68781560481649   -0.66736820847417   15.69632358111708
H        16.28138511526448   -0.60008019567379   17.34697485466526
C        17.26302438967296    0.76293782462414   16.00445843009120
H        17.03213602155417    1.36530986347907   15.12865960241358
H        18.05282205934647    0.06035194887952   15.74742759279253
H        17.63063545489130    1.42338335887929   16.78482695973229
C        14.52140479965856    1.49687499836834   18.09545225454177
C        15.02847096781081    1.30505982437107   19.39553242167068
C        16.22924359990535    0.44476532490512   19.51209950889373
C        17.49826849095557    0.98792475919110   19.35908131131043
H        17.59967332520729    2.04718903982824   19.17076712072738
C        18.61872244214203    0.17945056452452   19.44726345263154
H        19.60219791763496    0.61017995054652   19.32900564097292
C        18.48035639751644   -1.17698308104649   19.68196595727466
H        19.35474560552885   -1.80720870728694   19.74766673229114
C        17.21689527553444   -1.72768293024076   19.82911754347354
H        17.10549182370658   -2.78685136260036   20.00952179413603
C        16.09548375832736   -0.92269201792467   19.74476870507720
H        15.10728584096215   -1.34415969183331   19.85975142305791
C        14.48620966140237    1.85537622423430   20.57474429937860
C        14.96523037884554    1.70379232683607   21.93012017145283
C        16.16959952891585    0.99341191693345   22.45995533944307
H        16.42784002532157    0.13581364381378   21.84594287553568
H        15.93433552560773    0.62079666227488   23.45995641550103
C        17.37717716620809    1.92728345057728   22.56121244751757
H        17.62408968053276    2.33751865701179   21.58622707909295
H        18.24071374490139    1.38223199383405   22.93566475932158
H        17.16570444776692    2.75097552570586   23.23791167502104
C        14.09157843439858    2.38938968068072   22.74703237452917
C        14.10761963441146    2.58194995095866   24.22738479302973
H        14.73739990646180    1.82383678041988   24.69506702037195
H        13.09066027075356    2.46317757313766   24.61118893005939
C        14.61849360483942    3.97170427742015   24.61395546764067
H        15.62874100424414    4.12660663757011   24.24258020142803
H        14.62627439917212    4.08222640816930   25.69570018280838
H        13.97666766499731    4.74127718228188   24.19262850688873
C        13.10384655829259    2.93816222565946   21.88957659424257
N        11.37172600812422    3.63040900523596   17.37833647201455
N        13.45417122119210    2.31171361230872   17.87313580361919
N        13.33634390129391    2.63401044951498   20.61319117555053
N        10.79789803744996    4.23361863760664   20.00868788001379
S        11.79336154014992    3.85150359472131   22.56687467852074
Pd       12.23234241117403    3.21885419225310   19.04482003021317

