46
CSD_code = CEBTAG | q = 0 | S = 0 | Stoichiometry = C17H24Cl2N2Ru | MND = 9
Ru        2.35605833700538    2.23994621136766    1.22154922931703
Cl        1.11633287101699    1.17018870927008    2.90748366131562
Cl        2.66887260234963    4.14279949445948    2.55661352787936
N         0.66432022146233    3.02383089415600    0.39522890750734
N         0.56645970494656    2.86142791649432   -0.94374638161973
C         4.55412906794363    2.51828782154501    0.54217822399043
C         3.65699198377881    2.70069584578487   -0.53565338798143
C         3.57923487101216    0.30856311718863    1.02385802294259
C         1.49749793057681    2.03621349470635   -1.69412535532179
H         1.82538810654409    2.57885696793309   -2.58641722872888
H         0.97282971648822    1.13942260696807   -2.03914647486559
C         3.58947524157480   -0.96911467538823    1.81098719725537
H         4.54687356555210   -1.12226350188063    2.30041900970348
H         3.39300328504853   -1.82622080551988    1.17290372900166
H         2.80785365516871   -0.92831837535898    2.57409108337529
C        -0.91372385260761    3.45788013620961   -2.85377988046653
H        -0.13704980764887    3.91727054908126   -3.46598679035695
H        -1.83787256326884    4.00946532064146   -2.99682130716651
H        -1.05962808464530    2.43538223139240   -3.20261292554256
C         5.27480716549439    1.29014156525236    2.64561725874728
H         4.76866256720261    0.69939010786961    3.40478988258971
H         5.43122752099404    2.28072149939200    3.06561910688449
H         6.24581098057601    0.83747462175611    2.43166920833335
C         3.77351101262243    3.95444869407074   -1.36439356703043
H         2.93876859373987    4.09492509399970   -2.04356585515229
H         4.69081105711536    3.93003529744522   -1.95707958421990
H         3.80877963973777    4.82417465108530   -0.70917705790967
C        -1.15719753190126    4.06474948240122   -0.33469213368692
H        -2.05921030251400    4.64056118776532   -0.34031562345184
C         1.77601411257114   -0.71152127021790   -0.39718155854234
H         1.09503917287779   -0.51172559160755   -1.21830302214467
H         1.17793205969194   -0.96924427028364    0.47688340810033
H         2.37629221043365   -1.58009276773976   -0.67338641893897
C         5.60099488439193    3.55276454360223    0.82975294659956
H         5.18451576429110    4.30541987715025    1.50461309196023
H         5.92639922376140    4.04947323538547   -0.07987564922451
H         6.46957365730097    3.10524229296768    1.30502627372575
C         4.42965612795656    1.38238188028742    1.40112098754512
C         2.67322408351883    0.45193589025168   -0.06914280223281
C         2.65789203063084    1.69277072690672   -0.78265117650840
C        -0.58906364072217    4.14192430712367    2.19936340126733
H        -0.31859373161415    3.31279984081726    2.85358693294579
H        -1.62706446417408    4.41955546115603    2.35870283092563
H         0.05449054472232    4.98290403000093    2.45725008678367
C        -0.37049867703051    3.75431181679734    0.78602022147552
C        -0.54052091399005    3.47936383733490   -1.41707404907630

