65
CSD_code = CEBVIR | q = 0 | S = 0 | Stoichiometry = C37H5AuF15I3N4 | MND = 4
Au        6.15391456271851    1.69598231072704    0.59528158712780
I         7.47433380433655    2.57203462215188   -5.29471936158164
I        11.96778585196209    1.84706522943040   -0.32205150485553
I        11.56193804959736    1.29626950672446    3.39878297894974
F         8.58604491512894    3.50912182720106    5.05181362185404
F         9.83250740044195    3.24315577204323    7.45913120626907
F        10.37092026536679    0.75769261769550    8.43627855819902
F         9.63751156843103   -1.45145450169546    7.02144119938572
F         8.39093036659862   -1.16573198386081    4.61677385828589
F         1.29591825959152    3.56290478496232    1.92626688929911
F        -1.16776643309430    3.37575194246376    3.03851822017379
F        -1.92321881503322    1.07942071794971    4.30080697852302
F        -0.19897977409042   -1.02975189342408    4.42489228975184
F         2.25146739508803   -0.84544953136750    3.28342474556657
F         4.18886748399156    4.54409238835767   -3.60194430070803
F         3.13192256137642    4.79114750560824   -6.09970583309258
F         2.82127760124611    2.58205968766589   -7.66269356382909
F         3.54300934180610    0.13085817723921   -6.71722622344900
F         4.59942992137016   -0.09651952986013   -4.21690972652570
N         5.57946849012823    1.43220067121169    2.39376190170706
N         4.39541406739308    1.77696025523843   -0.13154462052190
N         6.93139594465956    1.93878872958425   -1.11018554765360
N         7.97191960386766    1.65277339763221    1.11191745971496
C         7.80607548178272    1.32899352414294    3.47298885749113
C         6.40891840811344    1.31608664684420    3.48274512807650
C         5.58114591380178    1.18485645877711    4.64112351831428
H         5.94189739807717    1.08055468349162    5.64567180854173
C         4.28426699501138    1.22327469349829    4.23415071652168
H         3.41179116799841    1.16232191638364    4.85376849488499
C         4.28286695684831    1.37058363206835    2.81336208041796
C         3.17715997344392    1.46584664064594    1.96227629125349
C         3.23627107767098    1.64922840037325    0.57572818602897
C         2.14712995712393    1.70705811073297   -0.34537911264069
H         1.11012958817516    1.61985234568349   -0.08862469819455
C         2.67059009899077    1.88084946191034   -1.58895502129426
H         2.13126895901470    1.96647738944877   -2.51194432387142
C         4.09315250688009    1.92635968531945   -1.46358182686086
C         5.00454221648143    2.08507940374095   -2.51213298116398
C         6.39658358537721    2.10121725935967   -2.34993270301131
C         7.50761669993196    2.24985780833184   -3.23286830700242
C         8.67436420674568    2.16733353323639   -2.49975155245054
H         9.67515025363834    2.24124606287312   -2.87713515534052
C         8.29722887023595    1.96841799198974   -1.16127032950268
C         8.88710634777592    1.79477051951823    0.10767862311312
C        10.16178266548780    1.70957585702737    0.69414893919749
C         9.98498393614037    1.51673732446559    2.05652811140323
C         8.58468080167443    1.48419204737662    2.31585730501595
C         8.48046271824002    1.17631775952736    4.78734528873832
C         8.84865230317492    2.29184545266771    5.53279848121242
C         9.48761411822299    2.16317235329410    6.76149827263015
C         9.76132434073321    0.89252833544802    7.26239652395210
C         9.38735295252606   -0.23678974338635    6.53782277466404
C         8.74817737774989   -0.08407184381620    5.31165876282927
C         1.83391715176734    1.36345071953068    2.57759207017925
C         0.93392358434774    2.42615022010155    2.52609167432235
C        -0.32996565258040    2.34190956838801    3.10103782241726
C        -0.71700602469286    1.17053052609183    3.74733579501270
C         0.16551191494014    0.09513727686303    3.81108104065559
C         1.42451550937632    0.20160126560217    3.22907911533111
C         4.42660244116342    2.22186318049134   -3.87355995697689
C         4.03604143029456    3.46210347252178   -4.36754414771794
C         3.49797482709913    3.59529458073109   -5.64363782453033
C         3.33765394219338    2.46588288227212   -6.44288140276593
C         3.70849503850207    1.21308319940984   -5.95994894277727
C         4.24533552764691    1.10384669337355   -4.68162820869415

