61
CSD_code = CECBOE | q = 1 | S = 0 | Stoichiometry = C23H33N3PRu(1+) | MND = 8
Ru        8.85226162661643    4.06924016194470    2.54119020107593
P         9.79904101361966    1.94742150646833    2.97115926540440
N         7.48006191056725    2.47003895579683    2.17842648818241
N         7.32555187415959    0.26575044593633    2.39024180570096
N         8.09782018287813    4.26019938744177    4.29446170380930
C         9.26349423273833    4.92717605498162    0.50466413348548
H         9.28582532498197    4.48519093802936   -0.48174765629803
C         8.14865407691996    5.61739516499491    1.06296200293732
H         7.17613855968078    5.71158856149843    0.60248941881943
C         8.58151960552679    6.29154618522695    2.21892155198293
H         7.99402269980987    6.98667341185605    2.80424514576941
C         9.96962059632490    6.01588440474612    2.40854057151523
H        10.62243236309102    6.51968191505028    3.10869177766756
C        10.38868034473314    5.20157616246482    1.32309347415918
H        11.41800200686670    4.95488216979936    1.09720623055975
C         8.12398563077380    1.35091051467520    2.50262728008754
C        10.96446602597858    1.14744931864507    1.71436549044199
C        12.37673912472651    1.61657634425127    2.06278430166460
H        13.04654015630049    1.43131576794678    1.22520885983608
H        12.77438153210309    1.09424113549736    2.92895209869793
H        12.37826269778629    2.68693655156284    2.27205791527166
C        10.88493578552290   -0.37367359281545    1.62136910936039
H         9.91806119423481   -0.68419292913710    1.23412267798267
H        11.07467588836985   -0.86888469088621    2.56595159663844
H        11.64498294975592   -0.71297927480415    0.91873075367526
C        10.56045358768676    1.72265343465362    0.35438847406789
H        10.80330759366200    2.77889646738206    0.29564682836273
H         9.49265268701809    1.59354570588713    0.16951632511769
H        11.10442562309273    1.20879316699563   -0.43591466035609
C        10.10474831605577    1.34259276885779    4.74884089432535
C        10.84062805329426    0.02258438313938    4.95551770267462
H        10.96548381976651   -0.13074943457207    6.02692405218651
H        11.83151501192900    0.03018713078020    4.51186357877921
H        10.27847658178296   -0.82610914663198    4.57367601245168
C        10.92638617102794    2.47945290290486    5.36470832269377
H        11.06808690958475    2.31113315950934    6.43011159443155
H        10.41668291487569    3.43455045307357    5.22643415593105
H        11.90720165499471    2.54320199544498    4.89785848556221
C         8.73439758408502    1.25520429566793    5.42758899617063
H         8.21507454121134    0.34085792929414    5.14877677609081
H         8.10745057028936    2.10694423095181    5.16221466446170
H         8.86199090902066    1.25022071427470    6.50832287672808
C         6.10003225672904    0.72001234602940    1.95672079882205
C         4.91608507520465    0.05287493846381    1.66775257520326
H         4.83420494942420   -1.01824911438329    1.75992188356529
C         3.84970717757591    0.82189991070992    1.25369426475892
H         2.91321994964485    0.34162975625154    1.01788216987949
C         3.94692322169130    2.21272304201773    1.13112133418450
H         3.08071373554383    2.76740855504198    0.80621806197304
C         5.11528240173679    2.88322941424449    1.41300098371330
H         5.19490277686544    3.95478313531560    1.32421394603208
C         6.20751029378838    2.12382579538348    1.82808899578458
C         7.61708851609762   -1.10604719780246    2.70174320466967
H         8.61248802699373   -1.17781079929748    3.13216922269150
H         7.56768741570615   -1.72119770477493    1.80064962661067
H         6.88517642417300   -1.48520253174140    3.41775839853534
C         7.62628770537864    4.74730896695800    5.23179073971131
C         7.05572686194850    5.27368063686365    6.43451587119866
H         6.02339583782295    4.93788645724693    6.53528566187640
H         7.07195350440052    6.36302445901743    6.40518633447172
H         7.62889393582548    4.93451520566875    7.29799464821073

