61
CSD_code = CECBES | q = 0 | S = 0 | Stoichiometry = C22H24F6N2O4S2Zn | MND = 6
Zn       10.24636078898751    1.43041388417620    3.69864913369918
S         7.31704629086559   -1.02524919907723    1.16622074928181
S         5.90386933402266    2.88294322341759    3.99680541863070
F         9.69607446158754    5.84812533514395    2.99904239689866
F         9.13649117843478    5.66927245246442    0.92812000126721
F         7.63879287000967    5.51158036622875    2.46097398517055
F         8.88821859746017   -3.14723965196748    5.71366180953988
F        10.51346766458641   -3.02569251726506    4.30714736807485
F         8.49116527415101   -3.25271142777283    3.60438933941442
N        11.26520352999218    2.22097561806669    5.40016881188350
N        12.19535876751778    1.04873079238038    2.91596850828409
O        10.14575166281474    3.29432932856600    2.89477281210553
O         9.28525006371231    0.82108498205908    2.03425337359680
O        10.18258659938350   -0.45598910921653    4.45107195018593
O         8.40919078274092    1.65481560858228    4.50231866517219
C         9.15214767659244    3.65010307149987    2.21946153399794
C         8.24711842920914    2.88199101650564    1.52175879893669
H         7.42567896243752    3.36384752044918    1.02188433928746
C         8.31844715675292    1.46857689115853    1.55619735405854
C         8.90368979599756    5.17418497530448    2.15921702108052
C         7.19126438922373    0.70118095490562    1.04975736926709
C         9.10660149171444   -1.09674966758588    4.49197956151468
C         7.81075814858247   -0.63201278671810    4.51428387412341
H         7.00020150431026   -1.33897839311415    4.51401218705148
C         7.53605372004429    0.75335379641783    4.41663420046801
C         9.25315774864184   -2.63486618720740    4.52213189696642
C         6.16840813382334    1.17590092119944    4.15795898637514
C         5.96547510749933    1.08267384731744    0.56225058563262
H         5.66850806686102    2.10510318378028    0.41821702258904
C         5.13218177047244   -0.01064907233332    0.27968315216923
H         4.13389956917147    0.08324485185192   -0.10856110558469
C         5.73013056833864   -1.20531435944114    0.55476622073471
H         5.32061998990698   -2.18802855505148    0.42819351580967
C         5.01769492045889    0.46566749507707    3.91906091082811
H         4.95553542559333   -0.60633018350746    3.95482094613072
C         3.92624504905994    1.29250191314348    3.61148099577692
H         2.94012052149288    0.92389419913726    3.39276218449820
C         4.25756398165907    2.61559271312001    3.61859548537356
H         3.61752527403235    3.45311412931105    3.42256976232904
C        10.72250348819125    3.51607469118902    5.80916783345892
H        11.28850857365257    3.93104642097725    6.65171552654652
H         9.68373406455103    3.38672227937047    6.10160912724564
H        10.75376780222105    4.21076459184932    4.97520614549294
C        11.20891632072480    1.32697633958768    6.55429319730753
H        11.59281967278756    0.34525341027638    6.29534032482381
H        10.17278471573537    1.20957353137866    6.86162528474014
H        11.78780279395943    1.73442959898429    7.39288512599063
C        12.64550734073620    2.37819755138433    4.94080035233555
H        13.33272259169575    2.47943403230699    5.79305707719228
H        12.69654086488201    3.29172995555814    4.34743052962652
C        13.07276450415999    1.19456619827163    4.07778855020436
H        13.00152285771143    0.27837682521066    4.66492723442329
H        14.11855241203225    1.32566852665499    3.76469212141871
C        12.57551457101124    1.99086997833930    1.86608714831005
H        12.49339137191516    3.01282239288375    2.22253385477146
H        11.89747518231874    1.87596694269351    1.02416155100487
H        13.60268774318849    1.80501566629171    1.52734668137548
C        12.30986151186621   -0.30277184271533    2.36872409509781
H        13.33031925690940   -0.49998449335207    2.01908649808046
H        11.61764069683582   -0.40656217651481    1.53724866168632
H        12.03940639475711   -1.03286238164847    3.12559195625658

