60
CSD_code = CECCOD | q = 0 | S = 0 | Stoichiometry = C27H29O2PPd | MND = 4
Pd        8.39248736538381   23.47950972883862    2.31210355154593
P         6.72847570157003   22.86040492963903    3.62144340127940
O         9.52260423921191   24.32279554591633    0.75913615688807
O         9.72857545428998   24.47375893479018    3.68282059193240
C         7.18086406950608   22.48965109548824    1.04893656381231
C         7.69640098831061   21.68717707018580    0.03477959867301
C         6.81498340927593   21.08494677733396   -0.85488931240636
H         7.20392114601945   20.46738167417232   -1.65313633570468
C         5.44897021907251   21.25055695504976   -0.72385070354432
H         4.78365232881389   20.77598286748277   -1.43145258187726
C         4.91429416318413   21.98559743738042    0.32635055199601
C         5.79658436191699   22.59408468457189    1.21675491403790
C         9.17749037995073   21.43616195935557   -0.07149859433221
H         9.37258607850411   20.38999890442696   -0.30411499998265
H         9.67743014051130   21.69510821027639    0.87475894298194
H         9.60870871820461   22.04935100339615   -0.86265593929375
C         3.42577780425429   22.08949518352951    0.49924287801260
H         2.91474504177853   21.67237366374053   -0.36506175223139
H         3.11571584283045   23.12655002048168    0.61593506831858
H         3.10392451984724   21.53601483023181    1.38242660168163
C         5.35439785132674   23.32745846367237    2.46270065817067
H         4.36362082749878   23.00988348413721    2.80071351462484
C         5.41555128022657   24.84600996922336    2.27786407412220
H         6.44709177330441   25.13074947050951    2.00118268970623
H         5.14294780129263   25.36469483550400    3.19747568036505
H         4.74613816914895   25.16421524743943    1.48018417964342
C         6.54341375466139   21.06881491318630    3.85128788681386
C         5.41414441590573   20.47618758761148    4.40214413891442
H         4.59657636654371   21.09000248355205    4.75220388132888
C         5.34291826945005   19.09843576080516    4.50386636433855
H         4.46322906164227   18.63428391482333    4.92583144909639
C         6.39655810919265   18.31234997128162    4.06584247361956
H         6.33315985784507   17.23708517602061    4.14521642570333
C         7.53147480818718   18.90144312155103    3.53127787258893
H         8.35323904062968   18.28550038589788    3.19728433673428
C         7.60576842811374   20.27769383547964    3.42582677147027
H         8.48670207871390   20.76962588791827    3.00973041212513
C         6.33595375834412   23.56139191960862    5.25651779139501
C         7.42317839040373   23.89755186756970    6.05855329385066
H         8.42189854046566   23.76201701389006    5.66315873455744
C         7.21877102652387   24.41599885698952    7.32400938069709
H         8.06235965289242   24.67752705587310    7.94604154391469
C         5.92853943140470   24.60611840244561    7.79259871205928
H         5.76626818341837   25.01318363338045    8.77989900576264
C         4.84388636538255   24.28443203163291    6.99261584612746
H         3.83906790449629   24.44353430798259    7.35701682051465
C         5.04268199820618   23.76328469821001    5.72643816122737
H         4.19194301482106   23.52566545526541    5.10345169645871
C        11.13570799605820   25.58397857254057   -0.41479844918281
H        10.57250441456621   25.19765359069363   -1.26089892428156
H        12.16960719362788   25.25243456085011   -0.48615924332346
H        11.12275741284196   26.67146829667820   -0.43906365687439
C        10.51675757787526   25.08261202885273    0.87975062704947
C        11.12203308119895   25.51526524471921    2.06361898778900
H        11.98150887498465   26.16221734899419    1.96857591472688
C        10.70499220719960   25.19618938144393    3.35942520833776
C        11.51936253582228   25.78980553743356    4.49691607698431
H        11.08043134680581   25.50651244885185    5.45074896392668
H        11.53919476813455   26.87441499908309    4.41664352654771
H        12.54337045847563   25.42460676213596    4.44987857056485

