30
CSD_code = CECDIA | q = 0 | S = 0 | Stoichiometry = C13H8BrO5ReS2 | MND = 6
Re       -2.51942919581295    4.43600085336686   10.01194241288982
O        -5.06267041925345    2.70982470028531   10.52223811060161
Br       -1.42534789160398    2.26008167779258   11.07609664494984
S         1.99431870975058    6.09504795059574   10.61111537540530
C        -4.18494449774223    3.39751026416629   10.30453306591369
S         3.91357864456923    6.06605118059514   13.09849742321386
O        -1.85164916659943    2.68892042244192    7.52716592298808
C        -2.13405055482919    3.39117365315497    8.37638868950804
C        -3.41026155606220    5.94283356860847    9.14988741025855
O        -3.97081830094709    6.81867688795263    8.66523917273153
C        -2.74421024169576    5.25817634827680   11.78979198188191
O        -2.89537479140057    5.68364557393459   12.83507878016876
O         0.08974579468754    5.81863437350429    8.80111579942987
C        -0.50940166426166    5.30532091423612    9.85547359169787
C         0.40969014576471    5.35156942187787   10.94244554182990
C         0.32521625505558    4.89445561771229   12.24633552642728
H        -0.52593701341611    4.38246789823469   12.65536479150123
C         1.49161420276667    5.12192043156461   12.98018882535428
C         2.47466799812850    5.77099086550987   12.21795351629323
C         3.20297029038356    5.31235539189066   14.50344115942182
H         3.79416244241400    5.25558281640965   15.39583171534712
C         1.94544662013077    4.86667876129704   14.30580852167182
H         1.35251869237702    4.37228925491025   15.05256066084605
C        -0.48016601685424    5.95545323216689    7.50990293385324
H        -1.57484057544880    6.00052075199278    7.57003343762939
H        -0.19053491619827    5.07636344083169    6.92123326094308
C         0.07950418994746    7.22106911722966    6.88000048121942
H         1.16501742696235    7.17642436225684    6.85430599497585
H        -0.22101489065450    8.09180941416907    7.45693974924697
H        -0.29739972016252    7.32055085303684    5.86678950180151

