72
CSD_code = CECFIA | q = 0 | S = 0 | Stoichiometry = C30H30CdN6O5 | MND = 7
Cd        8.93279560817134    1.67913938280640   12.24565036497858
N        11.32085240237236    2.26689845617968   12.19730210820384
C        11.87566126688947    1.11997085019120   11.48938489688567
H        11.85599240258060    0.24732387547124   12.14582405462595
H        12.91015588236791    1.29692803071618   11.15909857280796
C        10.99219442607810    0.82046193509600   10.25695173627806
O        11.49479735400556    0.73928023162095    9.13689283036926
N         9.71766802160719    0.68493087060771   10.58247053884278
C         8.79423118957590    0.46922178767174    9.49320847569655
H         8.53211428696940   -0.59470114295190    9.41232244814655
H         9.25991037456478    0.78172806283842    8.54359654672558
C         7.53921822487512    1.27962376865076    9.72973389453670
O         7.51466480372015    2.22416572205742   10.52385562584212
N         6.45188867368008    0.92081569508992    9.04224449127957
H         6.51823462855321    0.18112741027681    8.36249251476456
C         5.16952521750833    1.56569257809757    9.26081040672701
H         4.97881065908665    1.57830385201071   10.33733579207086
H         4.39819115839223    0.97384645841741    8.76960989770182
C         5.17670668264225    3.01375665558617    8.72630528753733
H         6.01373983597164    3.51763070717237    9.22387356743819
C         3.91362711061046    3.73560268878514    9.14964927504233
C         3.65713522340144    3.87535693326386   10.51144134254282
H         4.34717801200326    3.46496051811055   11.23365730777530
C         2.52455470660578    4.53422562967248   10.95099163851454
H         2.33901533932732    4.62970462853699   12.01085730552584
C         1.63246080456383    5.07416935697586   10.03905550818580
H         0.74702839673385    5.58941029513489   10.38188603492148
C         1.88870244463941    4.95508312043118    8.68567444783093
H         1.20503458499723    5.38097512557072    7.96495602189965
C         3.02254764002509    4.29269778904488    8.24366810416424
H         3.21117096767281    4.22245074765276    7.18260474537003
C         5.43789383350096    3.01188378397715    7.24264129654351
C         4.61578738383446    2.31659122238158    6.36113464744085
H         3.75280428685386    1.78521602217964    6.73656573725210
C         4.88263662890292    2.30689891978694    5.00398568490762
H         4.23157023301764    1.76567402275516    4.33269790380674
C         5.98047542130434    2.98748541722641    4.50501036912841
H         6.18947900649497    2.97820069745118    3.44548511014821
C         6.80802544795284    3.67799870675292    5.37271048026499
H         7.66883438016199    4.20825345520401    4.99224632142574
C         6.53695093332994    3.68845875727963    6.72997958169419
H         7.18942780162204    4.22634577846564    7.40370637691090
C        11.49892386542755    3.48758627987286   11.43264727472766
H        11.47408239802957    3.22214714136975   10.36984669664260
H        12.47488595010092    3.96108295147355   11.63097804519460
C        10.38773563258684    4.47646489565241   11.67005996633821
N         9.24857772775732    4.01008166950254   12.16999850029086
C         8.22815806707831    4.84297344406730   12.33635115157798
H         7.33135661545385    4.40648894525908   12.75361274149333
C         8.29660273594336    6.18744268185563   12.01030127590501
H         7.44112754546106    6.82792659482194   12.15393014012883
C         9.48509528865197    6.68470087117927   11.49704101667204
H         9.58113312109306    7.72761165737949   11.23269371789413
C        10.54911298374236    5.81690854448474   11.32868318406246
H        11.49072317960898    6.16345316640005   10.92988025725792
C        11.81150325784400    2.38698308709719   13.55733116686880
H        11.48632139559643    3.35617560876850   13.95478425880474
H        12.91405605654083    2.35015233394631   13.60295612831583
C        11.23382774013090    1.31274242462330   14.44333714632896
N        10.01536441907132    0.87102847185632   14.14811022559386
C         9.46585000203573   -0.06878348736036   14.90451355389760
H         8.48253337194522   -0.40470181351444   14.60105176449190
C        10.10181200337964   -0.60806710862980   16.01138325816249
H         9.61909783792545   -1.36968380950834   16.60245795362072
C        11.36890978319306   -0.14780165231212   16.33328988065186
H        11.90101140783756   -0.54233087847670   17.18621987345104
C        11.94646750769799    0.82329762910412   15.53348077844677
H        12.93597248459098    1.19835735527824   15.74748861952175
N         6.67071728738372    1.31384263118357   12.82915689606867
O         7.25973262420026    2.17541006084129   13.49360774382845
O         7.27048282930370    0.27452974917390   12.53981850336985
O         5.51713119319660    1.46899175052642   12.51501898768835

