27
CSD_code = CECGIB | q = 0 | S = 0 | Stoichiometry = C13H8CrO5 | MND = 9
Cr        6.66088398911592    5.73494228269546   10.48401080723136
O         9.34837446182006    5.17899192394467   13.61261095944976
O         9.79852592303581    4.27982714180060    8.16966013921030
O         7.27420149436147    7.61536255372644    8.25914829275915
O         3.96958224644167    6.92575433355648   10.05225501002147
O         6.93502286567214    8.23694942712561   12.07341124913576
C         8.48082219244362    4.31412252468600   10.14505522116555
C         7.33444345757913    3.86642997864991    9.41842143804480
C         6.15199053950107    3.57057287800928   10.07907306727771
C         6.03651778244336    3.80026377162719   11.47120601198711
C         7.10492728144056    4.32373548646223   12.18307321828090
C         8.36483643836881    4.54540033790339   11.54558779423582
C         9.50318011561180    4.98448088753798   12.27162725623965
C        10.69416162738210    5.19087822641797   11.61962830753955
C        10.80826817876945    4.96352734322373   10.24261859863572
C         9.73212079183070    4.52810653588597    9.50897230301167
C         7.06276822981789    6.85774141460656    9.10355535886613
C         4.99282154620427    6.41785282851385   10.22562492388404
C         6.85162393088905    7.24674600278188   11.48677693856193
H        10.16340285479879    5.53282736491505   13.98629942729272
H        10.67179684073519    4.51587486403338    7.83637495874492
H         7.45758921255968    3.64072646407198    8.36688784154658
H         5.32682969398008    3.11777648926222    9.54196570405973
H         5.12425681254584    3.52123590550781   11.98524076922405
H         7.05194401758248    4.44922335396436   13.25704687179821
H        11.55926669914667    5.53382845221016   12.16918862839886
H        11.75914077592224    5.13532122687977    9.75857890339668

