51
CSD_code = CECHAT | q = 0 | S = 0 | Stoichiometry = C18H22FeN2O8 | MND = 6
Fe       -0.98774537635413    1.73145194517424    5.29994941404112
N        -1.87379355262027    3.51658411675077    5.02786951241521
N        -1.87084166186692    2.96861653062560    2.05144624365046
O         1.62866762325984    2.59648748244857    6.27685733549446
O        -0.19542590842068   -0.86077783075668    6.30657864433724
O        -2.70450831161170    1.20813278629852    7.59826557595628
O         0.76658175674007   -0.36759272992675    3.90973913669044
O         0.31577779657560   -0.03712031734461    1.74456948836097
O         0.36737842382745    2.90525712555408    1.61424741917064
O        -2.07392256129339   -1.11381625834809    3.35981215311562
O        -4.02570525414708   -0.00020884282946    3.42410109902863
C         0.59097690219238    2.32095431244795    5.88719862069379
C        -0.39733991575999    0.09242803899783    5.71328215721609
C        -2.05621155943997    1.45430949214627    6.68652292606677
C        -0.64830340472455    1.44797774473394    3.28507275229795
C         0.20856824700457    0.25521140053817    3.02609277645291
C         1.10148711601120   -1.18038396020725    1.43048287631915
C        -1.63201272593796    4.66334683307466    5.90360210566477
C        -2.87956556105937    5.48525558937548    6.22798879351175
C        -0.59098544929964    2.50982293713206    2.24048609092538
C        -2.05389873359685    1.25102779691546    3.63824771182190
C        -2.67487865537535   -0.06903194106723    3.46309149781821
C        -4.69473025287894   -1.24551993339921    3.29383265545923
C        -2.74824708611331    3.58359474056338    4.10715377722505
C        -2.77801918663684    2.48668567618292    3.08452684319097
C        -0.55003207104226    5.52885885458639    5.25475939121802
C        -1.97297151463826    5.37438243615661    1.45305056134665
C        -2.17696027908639    3.92520330758414    1.00569929229539
C        -3.57494097845741    3.70287433468030    0.43995053686460
H         2.12457306906047   -1.04436549498992    1.78579911462022
H         1.07920534881568   -1.27497235094725    0.34780151196486
H         0.67189041448435   -2.06288947387661    1.90846508034110
H        -1.23567298079021    4.24792919538690    6.83609044498044
H        -3.69993259748145    4.83241316267773    6.51821855466686
H        -2.65830266735110    6.14736178211255    7.06049387499104
H        -3.19170883909241    6.10297580808537    5.38927170666368
H        -4.46519702544914   -1.88898642550348    4.14553850730544
H        -5.75725856265941   -1.01737065476919    3.26176384498053
H        -4.38139424936261   -1.75214590025648    2.37845623389895
H        -3.38297032035955    4.45202376442218    3.95861080174214
H        -3.77778377118863    2.27700443016812    2.70176129599755
H        -0.23492519352178    6.30798155694800    5.94286643441968
H         0.31195062531523    4.91890900777520    4.99568347905244
H        -0.93037095336319    5.99399569046882    4.34810825080560
H        -0.98426295924793    5.48421579730586    1.89151191407405
H        -2.04229605641386    6.03537086220980    0.59292071794011
H        -2.72632448916514    5.67771199799322    2.17715673921207
H        -1.43284438939146    3.71461366441150    0.22681241743977
H        -3.71790146277470    2.65826432815638    0.17448733510384
H        -4.34037447189399    3.99519656077354    1.15637361161996
H        -3.70199633342322    4.30475102335904   -0.45586926047003

