89
CSD_code = CECHOH | q = 0 | S = 0 | Stoichiometry = C44H40Cl2P2Pt | MND = 6
Pt        1.86386542657573    3.97326080599824    1.05489854614236
Cl        2.84277262699931    6.08127004931209    0.26588075839579
Cl       -2.19746069950174    3.67290515394043    5.03471001434777
P         4.03367466228733    3.55637154145463    2.16674025686269
P         2.07010613833935    3.08253911547436   -1.17854580086880
C         5.54978453944174    3.79662316155993    1.18326113541857
C         6.51522026963976    4.74177882486939    1.50975838041585
C         7.63000266071896    4.89971350991352    0.70482757460354
C         7.79612213526789    4.11851557847425   -0.42634041175643
C         6.83374004102184    3.18043115883785   -0.76237586670560
C         5.71221856230815    3.02837820427286    0.03158468669001
C         4.35030757519723    4.64869655276767    3.59512837255646
C         3.93100469511439    5.97395484755515    3.51545083163592
C         4.16928952094138    6.84479105421050    4.56309296061821
C         4.82830151684957    6.40234450566518    5.69834742397222
C         5.26125343825842    5.08854685524743    5.77560308938158
C         5.02924236889339    4.21314780525668    4.72993850120854
C         4.29209408539456    1.91640255220717    2.92788717871547
C         3.41965298401803    1.57411445250751    3.96108294625488
C         3.49492456685096    0.33424656494705    4.56403267325527
C         4.44089639703825   -0.58530661459335    4.13727959604577
C         5.31210451519896   -0.25132663530869    3.11486218088379
C         5.23996799552857    0.99187689844961    2.50878124296385
C         2.73105653544800    1.39747482789683   -1.44880062453689
C         3.08337914699360    0.63076395830478   -0.34361731206355
C         3.59508590587241   -0.64393366904090   -0.50761571342953
C         3.76052985428142   -1.16176489012252   -1.78125817064644
C         3.41354792910626   -0.40141078591936   -2.88729428708925
C         2.90235115867960    0.87343656723694   -2.72585671673467
C         2.84395708697648    3.98796005187544   -2.56169329585375
C         2.28314512110386    4.02203032430091   -3.83609482968192
C         2.93157572221004    4.68970572166252   -4.85892306877690
C         4.13927641323200    5.32662137405450   -4.62361644348213
C         4.69775601315323    5.29843360297144   -3.35728111403106
C         4.05297750979008    4.63392844301394   -2.33034862781157
C         0.35629109971279    2.92367335287840   -1.77015481257966
C        -0.30786332828772    1.70818520258503   -1.87555129401516
C        -1.64252019126574    1.68072443826598   -2.24459869501109
C        -2.31978327094572    2.85943394530197   -2.50599485869451
C        -1.66176200230471    4.07596765431116   -2.39690481044980
C        -0.33250713849705    4.10893472969293   -2.02585640831200
C         0.66830806687932    4.95065520154535    2.48565177479102
C        -0.03840441286986    4.87072959199677    1.24951371666492
C        -1.14106012738422    3.85675765693244    1.47032932767301
C        -2.15279682577266    4.52640186851198    2.42163297607252
C        -1.37953111069014    4.60423629473738    3.74647117148407
C        -0.02185809564806    3.96745625177132    3.41103964394333
C        -0.40795266777862    2.87991071306179    2.39928661341441
C         0.81351364482323    2.29782546466687    1.71611833455174
H         6.39441479908655    5.36096291897232    2.38602765969182
H         8.37236878025750    5.64098357841382    0.96242550047168
H         8.66808296209197    4.24683264067142   -1.05067705487416
H         6.94562150439076    2.57714130479939   -1.65187468072857
H         4.94469435265529    2.31818282984447   -0.24889052326979
H         3.43942146521492    6.31970313733139    2.61655422869791
H         3.84128214045241    7.87164316386969    4.49211045876025
H         5.01095836857752    7.08032021917459    6.51930535500066
H         5.78737737748332    4.74306450251751    6.65405256623700
H         5.38031124075869    3.19334941727389    4.79798239656977
H         2.69393856268435    2.30312454860105    4.29757740537445
H         2.81629312129115    0.08186513849974    5.36564943398936
H         4.50001993019102   -1.55714209748461    4.60450004685645
H         6.05756745105169   -0.96127618011341    2.78634024400578
H         5.93070573834929    1.24140837654245    1.71669792884635
H         2.96015340331871    1.04574164622486    0.64863690413194
H         3.86704240578122   -1.22710244910387    0.36012699144548
H         4.16218096056422   -2.15543674585019   -1.91430554732152
H         3.54450362070012   -0.80392752150341   -3.88124731320719
H         2.63932135553841    1.46441671707851   -3.59119785663771
H         1.33462207842162    3.53964389480794   -4.02980788880878
H         2.48874846437669    4.71574163292848   -5.84442451769019
H         4.63789667417208    5.85060945466098   -5.42595176070824
H         5.63312265620173    5.80179589102951   -3.16220193113576
H         4.47371176870255    4.63764724500277   -1.33701893085540
H         0.21660520792235    0.78478587411494   -1.67163462893214
H        -2.15535728642636    0.73333037636891   -2.32663796388875
H        -3.36080130176560    2.83236326298841   -2.79238501461775
H        -2.19009412945497    4.99652135852493   -2.59787822420401
H         0.19146131748484    5.05121256888303   -1.93047357829800
H         1.04792008311297    5.88514319879893    2.88918880168973
H        -0.21465319099658    5.73557327644826    0.61647270659556
H        -1.59043621965573    3.43334516581644    0.57346693633694
H        -3.04587793503955    3.91114178020118    2.52686175677897
H        -2.45306717241952    5.51282132056979    2.06942876780673
H        -1.28332498332700    5.61824668520910    4.13642624105698
H         0.54226066884492    3.65514407843338    4.28851152313336
H        -1.05913605031714    2.10999719040469    2.82338719861191
H         1.38185111303528    1.68046927107433    2.41846618232772
H         0.49459063747365    1.66209749243771    0.88204143432360

