58
CSD_code = CECHIE | q = 0 | S = 0 | Stoichiometry = C22H27N7NiO | MND = 4
C        13.39440070694180    7.57660082986266    8.98062833834522
C        14.63844516267251    7.05373067582568    9.32207387368436
H        15.41742322389227    6.96575015688405    8.58009015247961
C        14.89597995643579    6.67157167390518   10.62606808243236
H        15.86544869361534    6.27049312722015   10.88436799181982
C        13.92144980541404    6.80652770230455   11.60127618561003
H        14.12906941337750    6.50408442970904   12.61723165467940
C        12.68567368713277    7.33977481356660   11.27187767064165
H        11.92708864458377    7.45725435936799   12.03170810320869
C        12.42443382353992    7.72710824009243    9.97221812262287
H        11.47079411133818    8.15331996668160    9.69820704542416
C        13.04304121353086    8.00691645605930    7.60413908148960
C        13.68665779633858    7.46237803735454    6.50089732544599
H        14.47015313475084    6.74057827383256    6.65192056036625
C        13.34854813828081    7.79747814088846    5.18135203144699
C        14.20501141251563    7.20530021757687    4.09250753380008
H        13.62869392600803    6.50300660490928    3.48964535747957
H        15.04700826488124    6.67204116969937    4.52266736335533
H        14.58658595086241    7.98575672452546    3.43528687409116
C        12.05387868519186    8.88059636125175    3.48989301157851
H        12.17766962719763    7.99621921722792    2.85326825698614
H        12.74564490314117    9.65236680525463    3.12372481514757
C        10.60658988429685    9.35173751202765    3.38155991084378
H        10.41217422223853    9.79650810403461    2.39836215254400
H         9.96243297379954    8.47798807448705    3.49558056092890
C        10.90710102386214   11.61718940194368    4.27514004543416
H        11.99134679353143   11.47495975502580    4.24347479940949
H        10.67079398221299   12.20827678796075    5.16547594372434
C        10.47295149362362   12.39929601120948    3.03532882176554
H        10.72793500840250   11.88813773618161    2.10956658948622
H        10.99161654327919   13.35438219277599    3.03883916382427
H         9.40578278789264   12.60087525941955    3.04513271015014
C         8.81003430162263   10.41552678883257    4.57125784106904
H         8.38065942660939   10.60993340335659    3.58088348184080
H         8.60128850428767   11.27186450396696    5.21486829409875
C         8.16905571055773    9.16501157766990    5.17220936135245
H         7.99126180535879    8.39325891973933    4.42671978999335
H         7.21555261402846    9.41936214825833    5.62661453978192
H         8.82169095020531    8.75308788059531    5.95227363605075
C         9.15340853917625   10.97884368587821    8.99216129055810
C         8.48179156942173   10.90204530019386   10.27078698024273
C         7.87995712644296   12.02842469602611   10.82952529680956
H         7.91273337747014   12.97052701806848   10.30583069079662
C         7.25369912924932   11.89482701830709   12.05570777370596
H         6.77112403190195   12.74035562505903   12.52985720640281
C         7.76861520414662    9.69050729400992   12.19520093276694
H         7.69555827521055    8.78238720051015   12.78083905840633
C         8.42262316598245    9.70123383494288   10.97671359404062
H         8.87825174151786    8.81296871747940   10.56868687574211
N        10.20761164189002   10.47376101111461    7.26780718043291
N         9.93082710399550   11.75514988363758    7.19087816551342
N         9.27122011748930   12.09800419885730    8.25273252619760
N         9.74025917745541    9.94932760528778    8.37381551153704
N        10.27678913721107   10.29032728832852    4.46827581632405
N        12.33262842511571    8.57872113674373    4.88513379525868
N         7.19398391245741   10.75685512415893   12.72946250356725
Ni       11.23099699058392    9.53113694909769    6.08126630947506
O        12.12045302583281    8.88334637082240    7.54008141779343

