121
CSD_code = CECJUQ | q = 0 | S = 0 | Stoichiometry = C39H75BBrNP2PdSi | MND = 4
Pd       15.66628725972286    3.11979318266224    2.51174821940597
Br       16.27371645210310    3.17662704239558    0.13153649164594
Si       14.74129961243343    2.09095580200812    7.25506119665893
N        15.04309489328356    2.53993504240324    5.63674986147102
B        15.27760240434194    2.82955289195971    4.42436775323550
C        14.70275433680206    3.64468446051566    8.36154693436514
H        15.68933641909701    4.08855574307110    8.45950014427107
H        14.35746844039731    3.39803613802601    9.36107232159509
H        14.03723928020938    4.40526937910244    7.96321666973815
C        13.06124340247238    1.19227598636608    7.37280672615696
H        12.98831273730729    0.38889167021523    6.64504395142430
H        12.23053741403669    1.87123884309307    7.20224794244203
H        12.92477329666977    0.75482385953792    8.35713330177421
C        16.12045119154508    0.91647995934399    7.85355936360757
H        17.08966975134949    1.40657227199107    7.85026559515657
H        16.19505389783203    0.03822133798153    7.21900597338105
H        15.92929202127198    0.57446345130634    8.86630021403790
P        13.54263361584988    2.44219249890751    2.06111193533086
P        17.74820742731082    3.79449009144463    3.14338880346733
C        12.90846308857586    3.04125373749249    0.41748098193340
H        13.66736129184508    2.66518691546968   -0.28290979532468
C        12.97892434160938    4.56812912159420    0.35241032936259
H        12.16785455889700    5.01074639824922    0.93436882290722
H        13.93114697720841    4.92037827321928    0.77498638429529
C        12.84946543652153    5.01348880000977   -1.10042233937804
H        12.89418165411887    6.10275157716479   -1.16350939052934
H        13.68578572779367    4.60876103156128   -1.67341347522968
C        11.52894428361491    4.51412751936816   -1.68240782993279
H        10.69817678386144    4.98582278270887   -1.15016395397384
H        11.45505647608145    4.80047536054771   -2.73320751561175
C        11.41141414261487    2.99692306325860   -1.55359122681254
H        12.19515971156547    2.52342750569035   -2.14885829063194
H        10.44628272903697    2.66562565035746   -1.94413085594018
C        11.55397385418318    2.56298121218272   -0.09370196465083
H        11.46843386745532    1.47681292761889   -0.02463897797054
H        10.74284425408726    3.00608748039596    0.48491499741322
C        12.33296851709112    2.86727895926383    3.41102660165753
H        12.76602531857554    2.34156986717598    4.27383761324594
C        12.38532812320624    4.35600487731932    3.75516749015938
H        13.43110714218437    4.68988981003948    3.79747730989467
H        11.86873416191456    4.94387765000720    2.99442258464414
C        11.70670853500241    4.58165669851202    5.10196211065078
H        12.25283987773483    4.03021067866393    5.87020107639389
H        11.73420079297903    5.64185022074276    5.36357152755060
C        10.25757356079812    4.10138279328778    5.04510361692412
H         9.70401052040242    4.71581304149342    4.33006387664627
H         9.78585603140331    4.22507296129461    6.02216441088001
C        10.17717059102130    2.63789529610105    4.61528264072261
H         9.13080091154531    2.33349745451711    4.53758861693504
H        10.65256442255275    2.01022477715444    5.37207978295224
C        10.87941643483196    2.42730834746248    3.27353336648283
H        10.37067083561378    3.02469764790941    2.51584645059223
H        10.81262513626531    1.37740418462632    2.98103371296021
C        13.45352684097202    0.58754706809701    1.93907741351818
H        12.44613564044953    0.28366664413622    1.62823996012941
C        14.47716214690647    0.13185082396335    0.89498634347634
H        14.22986121380434    0.53879312359510   -0.08768406580715
H        15.46509172342577    0.51976300260022    1.17952547665102
C        14.55262995004655   -1.38800760537317    0.80534936325575
H        13.58765960802916   -1.78368542926937    0.47752529113515
H        15.29986300974544   -1.67050598373836    0.06140358738079
C        14.91004996647691   -1.98344639462202    2.16205863568661
H        14.95444461598121   -3.07244154238221    2.09643155207934
H        15.89591312039233   -1.62509690328781    2.46744064861030
C        13.87322407058301   -1.56383935263327    3.19757078224110
H        14.13129466522319   -1.97345329950594    4.17669940740264
H        12.89693821625460   -1.96656878395871    2.91456525397481
C        13.78508307594821   -0.04271132063480    3.29315060164249
H        13.02688549448437    0.22233107542033    4.03212351912281
H        14.74404436938754    0.35957988146118    3.64601152803693
C        18.74373135809239    2.26966311240045    3.54352287239390
H        19.81205773917417    2.47563679125446    3.40971301090934
C        18.29932196752241    1.21267030445081    2.52374543920641
H        17.20579853477305    1.07402142766567    2.62973499193578
H        18.50593790929627    1.55970605942904    1.50630096191394
C        18.98854630979831   -0.12599296744948    2.75615254765801
H        18.63022282282676   -0.85560848386693    2.02662259401748
H        20.06568985004123   -0.01169823237873    2.60994045103215
C        18.71828013156214   -0.61820190037450    4.17363119133282
H        17.64477910563386   -0.77273137839694    4.30939030072961
H        19.21995789805704   -1.57326778626196    4.34211691587480
C        19.20632919233989    0.41565716323580    5.18186254907973
H        20.28688859396512    0.54390227388041    5.07429120642018
H        19.01059840226367    0.06822919220867    6.19816836876840
C        18.50713511761301    1.75618047826027    4.96273001984474
H        18.88490867247543    2.47588999647897    5.69179955081652
H        17.43288922961571    1.63468034830133    5.12985664809244
C        18.78712372909894    4.65011926266545    1.85322744127310
H        18.73608985369105    3.95362828014452    1.00348807977475
C        20.26583605917964    4.91940880229799    2.11977109747230
H        20.39045430658179    5.69123422133209    2.87913821688308
H        20.78107095869715    4.02115506735202    2.46444778825511
C        20.91001343308658    5.39774277537779    0.81716297671893
H        20.82452895460824    4.61271748885274    0.06273870651630
H        21.97259674167504    5.59043604260015    0.98322549753981
C        20.22771585700215    6.66362807238809    0.30484303842783
H        20.37863168845056    7.47161254894896    1.02618001365176
H        20.68281302315066    6.97150129313788   -0.63836607480239
C        18.73163162108672    6.43289652021309    0.11017466332880
H        18.56677319036987    5.68169656101657   -0.66418837620886
H        18.25099452198275    7.35884982177618   -0.21194568021506
C        18.10611676159283    5.94720212800815    1.41308942558570
H        17.03105891667475    5.78207580283069    1.27384819481317
H        18.23666314790642    6.71493681302300    2.17943369105120
C        17.68613666365935    4.82508384927687    4.68965558947296
H        17.29852212076802    4.10925771591692    5.42878694457991
C        16.62505640035890    5.91979541947212    4.55426056251081
H        15.71234768406509    5.49852593374196    4.10470597442917
H        16.98142464525760    6.72217298705079    3.90567794557013
C        16.31628991158630    6.49052332207706    5.93410246879597
H        15.56531415132999    7.27970749120103    5.85498649419168
H        15.90784566698096    5.69766390345659    6.56319995045183
C        17.58856943640134    7.05164120908455    6.56744784019646
H        17.37123583442064    7.41852371526209    7.57254242276371
H        17.94257801264364    7.89913658336471    5.97455268848750
C        18.68734311565873    5.99252186247899    6.63201485656173
H        18.37115774053330    5.18051916962410    7.29136800850898
H        19.59729809850733    6.42901700559361    7.05028769331603
C        18.97225434499438    5.43079444949121    5.23887815212234
H        19.30959145142971    6.24619963512594    4.59683566592698
H        19.76779744736999    4.68378856518534    5.28824103623911

