45
CSD_code = CECLAZ | q = 0 | S = 0 | Stoichiometry = C19H22FeO3 | MND = 8
Fe        1.85801413735003   10.42773504552387    4.80325618528719
C         3.16089856164864    8.69407739917653    5.42135199659654
C         3.87518564341828    9.92335024909864    5.50772477329105
C         3.22399370705647   10.74801416419631    6.48522992398512
C         2.07752329032597   10.05192407255950    6.94937561254984
C         2.02089330884748    8.78960840608740    6.26623049887514
C         3.59929371308961    7.48147810019401    4.66666127170171
H         4.28077149438010    6.89178553862717    5.28284870984534
H         4.11570851798929    7.75702774484388    3.75045505733537
H         2.75016350807022    6.85825551571476    4.39898820486598
C         5.22112670877681   10.18574976533018    4.90606162399597
H         6.00659656603943    9.80530579449388    5.56189903555577
H         5.38400447383714   11.25121784452789    4.76319476176114
H         5.31478854204814    9.69174766873134    3.94205805725062
C         3.76958777279923   12.02407064379866    7.04677912090479
H         2.97151197671760   12.65875872811673    7.42332057316360
H         4.32025975415931   12.57968720361471    6.29200236845980
H         4.44992196223291   11.80442625693562    7.87180319206745
C         1.20038319706969   10.45998587920041    8.09203789938272
H         1.60578869056827   10.07144509465882    9.02827521912966
H         0.19321085155125   10.06947720885220    7.97077695436542
H         1.13946126427969   11.54242793078437    8.17068631060596
C         1.08481774773309    7.66855846662672    6.59732782133740
H         0.94515120121614    7.01420801835083    5.74042605113330
H         0.11227775300949    8.04892566072938    6.90014861079775
H         1.48879166397886    7.07317134350056    7.41839404719616
C         0.14662402835469   10.71497569085678    4.70387549344265
O        -0.96808410001024   10.97080938630851    4.60213762573770
C         2.03845565663211   11.96497153476682    4.01464110755953
O         2.08687601427112   12.98892087526105    3.49674448293597
C         1.78558231933202    9.55096268825591    3.05006982035360
C         0.89739358495453    8.50511492779708    2.81376533034138
H         0.11970719718095    8.28709030956122    3.53336359867977
C         0.97925828891066    7.72663720583986    1.67600268119463
H         0.28809777446454    6.91601853368657    1.50223379471378
C         1.96044251546507    7.97718131047808    0.71903203781834
C         2.84837699399794    9.02210685259722    0.92968367566351
H         3.61916576335767    9.25456021871294    0.21042236477944
C         2.74934152175828    9.79086404883610    2.08185475422651
H         3.45572068100396   10.59951734311776    2.21401746171304
O         1.96086566558931    7.14894043081109   -0.37110407194531
C         2.90013397392378    7.38834571580664   -1.38765263474788
H         2.77917317033658    8.38662275489497   -1.82159648865893
H         2.70579924615899    6.63831717923927   -2.15308669228627
H         3.92744369612687    7.27382324889868   -1.02441822296103

