44
CSD_code = CECLED | q = 0 | S = 0 | Stoichiometry = C19H22FeO2 | MND = 8
Fe        0.36957631290420   -1.65645034234403   -1.54320836389039
C        -0.03999188209456   -1.02269867456978   -3.61041280351497
C        -0.87142215054726   -2.14658188112805   -3.28328163841430
C        -0.02373526410308   -3.24804239516307   -2.99800015486966
C         1.33562846215227   -2.80992528878515   -3.15027775326783
C         1.31623614958782   -1.45465335062720   -3.58337964506510
C        -0.52358625247990    0.28201994455111   -4.16399814975670
H         0.18695926361984    1.07786093728879   -3.95416922886299
H        -1.48379185831141    0.55689107742152   -3.73414351898290
H        -0.64303209813863    0.20877961235216   -5.24677410300809
C        -2.36202675269752   -2.19062232434290   -3.41583697458446
H        -2.63533948681118   -2.44266464388348   -4.44232706245570
H        -2.80501056659360   -1.22784877061927   -3.17382613824182
H        -2.79158994669923   -2.93963981534342   -2.75547862349478
C        -0.45959758926995   -4.66326758293668   -2.77717760113517
H        -1.43421344302736   -4.70186614780088   -2.29731669545046
H         0.25021734140699   -5.19814592874596   -2.15128563303994
H        -0.52900065571577   -5.18360746788632   -3.73441551819920
C         2.53925849090597   -3.70096828432782   -3.13599862728672
H         2.69548659099964   -4.13599046170358   -4.12508164102507
H         2.41552597775321   -4.51291483430445   -2.42347704807732
H         3.43182908587297   -3.14153282296448   -2.86666091846017
C         2.49711298691531   -0.66109166465318   -4.03979818653003
H         2.64004761635532   -0.79898425802623   -5.11330725297258
H         3.40272596560887   -0.97777060445704   -3.52878448444402
H         2.35516388367637    0.39906015301864   -3.84527620258611
C         0.65026729488203   -2.61732362615357   -0.12244413637761
O         0.78454650272893   -3.21724004779467    0.84765841722496
C        -0.80189822090161   -0.79726536237986   -0.58940873836158
O        -1.56318040588842   -0.27586493911872    0.09443463116266
C         1.74958531939247   -0.39847254662180   -0.94640591320821
C         1.56669043451356    0.97357452469437   -1.06413165545823
H         0.59182007002445    1.36696909624591   -1.32091520284160
C         2.60984548359518    1.86358245955183   -0.86203908054017
H         2.43237442949438    2.92589282712995   -0.96520490030593
C         3.87702090576792    1.41010159675109   -0.52817528679741
C         4.06641911238367    0.04088011911088   -0.39822907029986
H         5.04472837802967   -0.33795842402298   -0.13365727245661
C         3.02053023805321   -0.84361630398135   -0.60113801900647
H         3.20706280636849   -1.90363519779321   -0.48798135890056
C         5.00880409622283    2.36490519357865   -0.28883962848651
H         4.78293686907458    3.34665150241238   -0.69843342977886
H         5.92751895019252    1.99695020412009   -0.74229364294599
H         5.18579755479727    2.47502474425145    0.78149825499060

