35
CSD_code = CECNIH | q = 0 | S = 0 | Stoichiometry = C13H17MnN2O2 | MND = 8
Mn        1.78896031153968    0.49353282290993    2.70218388411323
N         1.93611525134197   -1.49324936572653    3.33758469257795
N         2.77869392564283   -1.57488398506365    4.40289096526254
O        -1.13086133074420    0.60374263766172    2.85964674885080
O         2.04265161224513    1.65679655888304    5.36705680840062
C         0.02851593732615    0.54226510440926    2.79825555600318
C         1.91082714065047    1.17724247074740    4.31954670659208
C         1.58724806894988   -2.58827576336868    2.76279122543252
C         0.71923562579109   -2.59269767092837    1.55242556067102
C         2.02812663482439   -3.91808533652430    3.29743599391727
C         2.37753779025307   -1.52078502658583    5.60560458952804
C         0.93654045151521   -1.41651339383507    6.00209633049306
C         3.40088531892938   -1.52230739147624    6.68778268791570
C         3.18824149776964   -0.09815708642268    1.10064612725661
C         2.08070959292373    0.55351510391506    0.53068465077758
C         2.02969202764799    1.86738177072074    1.05737076983576
C         3.11485618529227    2.01578236909892    1.95587657479785
C         3.81551906755360    0.78869850257429    1.99938605443508
H         1.31057464055121   -2.81568244883694    0.66379080861477
H         0.23424106607641   -1.62626015046556    1.42300350290738
H        -0.04008411975740   -3.36630826164925    1.64988104273531
H         1.96850909043782   -4.68144861057832    2.52697248400290
H         1.38961961044576   -4.21758593931600    4.12891974565021
H         3.04860781948546   -3.84898479929521    3.67308844013839
H         0.37989573361701   -0.86686214785238    5.23388434244058
H         0.83957639081107   -0.90939342844790    6.95716128366599
H         0.50168494967027   -2.41168444359702    6.09404176336544
H         3.40708880960622   -0.54368185334576    7.16559345717609
H         3.15351581947590   -2.26488836850715    7.44370155576019
H         4.38725550798427   -1.72203171407508    6.28094813197081
H         3.56148861958359   -1.07598821972718    0.82030537948040
H         4.76530105102061    0.62164987080205    2.48866981249759
H         1.47990746329668    0.18297904569958   -0.28884656565255
H         1.39158502204165    2.66580716085051    0.70028804224475
H         3.43543741620125    2.94476198735242    2.41043084614027

