54
CSD_code = CECROR | q = 0 | S = 0 | Stoichiometry = C20H29I2N2Re | MND = 6
Re        1.19503492414292   11.05191770453233    6.41625277058184
I         3.04229140378785   13.05956073930681    5.82581306582178
I        -0.39412398959033    8.88399868238537    7.15368634700648
N         1.91989734305135   11.18517756602522    8.66140939423443
N         3.11244104705042    9.50678548364658    6.45043819474044
C         2.12641238032476   12.36648839929095    9.23689165098635
C         2.61744588815212   12.50607483931804   10.52240779880751
C         2.91040640517397   11.36629611586496   11.25274200350618
C         2.69090614265401   10.13433761698281   10.65982891570138
C         2.19474937180863   10.09485284620509    9.36920799902204
C         2.98755067847732    8.26942904948794    5.97701639346240
C         4.00465633235680    7.33356017461939    6.03802383132510
C         5.21043764658513    7.69193586025925    6.61813616695803
C         5.34568740824708    8.98102051296756    7.10532905249507
C         4.27455689443838    9.84999920910993    6.99632782850551
C         0.81302533304493   10.84169774427750    4.60967877402523
C         0.69115176095047   10.56838706333970    3.18415130171764
C         1.48143059359709   11.63464824325176    2.40364759759890
C         1.31242281653849    9.18151606430287    2.92194199430844
C        -0.77581849317542   10.55322830553258    2.72627147346460
C        -0.26172375898610   12.33214893574758    6.86090055661397
C        -1.36087218090889   13.07759889863118    6.18769070430845
C        -2.00235343601033   14.10560906632799    7.12714123528565
C        -0.82506567462477   13.79121190193128    4.93898422924879
C        -2.41476737835306   12.03058583187095    5.77726481174214
H         1.90119168729541   13.24725760731482    8.64891379852452
H         2.76610648464816   13.49227241767575   10.93245773929263
H         3.29717498735963   11.43603919122298   12.25841721764736
H         2.89418397400934    9.21223264785411   11.18109200004153
H         2.00823695200683    9.13627199413707    8.90150339266103
H         2.03318517251812    8.01393810830787    5.53854823692121
H         3.84467054402012    6.34476222888403    5.63893913393445
H         6.02469184149222    6.98616833352250    6.68740395628321
H         6.26310551748228    9.31807361404904    7.56152315167324
H         4.37534633228238   10.86488946001677    7.35986068796775
H         1.46531970155463   11.39486194076700    1.34296482037853
H         1.04763905005302   12.62024362345757    2.54807870062810
H         2.51327934594919   11.66488056586103    2.74331477593749
H         1.27046602282112    8.95861420016823    1.85823395867319
H         2.35214300380461    9.16550702243793    3.24135530374536
H         0.75954328431858    8.41531672496216    3.46036479652784
H        -0.82291298666377   10.28131074156490    1.67408537501187
H        -1.34182473764605    9.82389468087763    3.30061250410600
H        -1.22976669396590   11.53133170518437    2.85439318700761
H        -0.28086603150472   12.51944724479200    7.94928129979890
H        -2.80751467389088   14.62717023701254    6.61437549384655
H        -2.41848368869786   13.62124716335632    8.00903476609848
H        -1.26897507576824   14.84406579924642    7.44695869781271
H        -1.64685368290545   14.19054220619448    4.34998137832244
H        -0.16804980574740   14.60890387818555    5.22484794725858
H        -0.25107086918654   13.08788896703969    4.34174318618191
H        -3.20047143140341   12.50585511451360    5.19548573461354
H        -2.85890107362688   11.57300227766045    6.65793147303063
H        -1.94267260931641   11.25124344860631    5.18581319447799

