115
CSD_code = CECTOV | q = 0 | S = 0 | Stoichiometry = C54H48N6O4S2Zn | MND = 6
Zn        6.66200765075380    2.69261975549178    0.00000146347754
S        -6.45620088314798    2.61170008066602    3.23035768396643
N         4.77229214576763    3.63186493807063    0.53998548911992
N         1.13052198617457    6.80470803817320    1.70221672674793
N         0.50777779665627   11.70290057379266    2.20651216519028
C         3.56053924815722    5.42167962554133    1.54314724414153
H         3.56864020103003    6.36598521820616    2.06363473823288
C         4.73705368908136    4.78984503920785    1.18557101535289
H         5.69202296357109    5.23109295300503    1.42733231098823
C         3.61771143835138    3.06420845321992    0.22342946829212
H         3.67611855113489    2.12794853625256   -0.31057262545266
C         2.38726460227712    3.61227378455497    0.54096102467581
H         1.48267739914635    3.10875402101472    0.23644205697338
C         2.34250170541733    4.82416315078704    1.22526577959386
C         1.08135743903799    5.48225151595074    1.59873029676850
C        -0.08439325301755    4.76035238863372    1.84253804613097
H        -0.08913425874083    3.68448715791898    1.76908251516423
C        -1.24899104542141    5.44707714781380    2.17875710914268
C        -1.18393882733633    6.83608253180075    2.26136088967421
H        -2.06576665925337    7.40457756381655    2.51049784683540
C         0.03180682380795    7.47528265048428    2.02848425159348
C         0.17684330860822    8.93691749568735    2.10920484495620
C        -0.65681629619036    9.73485771915391    2.89023589512792
H        -1.44003580599249    9.30519610688304    3.49555263268765
C        -0.44545108916851   11.10396116521410    2.89874402477255
H        -1.07143946042977   11.75793919043513    3.49233535347265
C         1.30698382496704   10.94566544335649    1.47283996310554
H         2.07739477110667   11.47462591897418    0.92687169702713
C         1.18975178607749    9.56953662017996    1.38861763382364
H         1.85770962886467    8.98021215253300    0.78143689695166
C        -2.50341930475651    4.73249140158488    2.44131406074342
C        -2.50412199207392    3.53273642793795    3.14696286666818
H        -1.57347071688762    3.12970354512409    3.51929753807799
C        -3.68088831963506    2.85919864279725    3.41298166325798
H        -3.64061064453048    1.93876848078658    3.97298829233925
C        -4.88937965988622    3.37325174392815    2.96192530931861
C        -4.89905987883376    4.56996802495975    2.24624052692825
H        -5.84118439019687    4.96043848747424    1.89269720686941
C        -3.72391469483926    5.24185039833390    1.99581243950225
H        -3.74688574742763    6.15931069130639    1.42649810210768
C        -6.06604021463277    1.11678214958411    4.18335958275398
H        -5.42511029510735    0.46061035156908    3.60180339790187
H        -7.01990431345249    0.63169081604198    4.36601062987498
H        -5.60425151641366    1.38772308519146    5.12834519470711
O         5.92552418579536    0.90567559971670    0.53154939284869
O         5.96008370933878    2.34195493727154   -1.83976285608597
C         4.89037787555159   -1.23288280227005    0.49919029789778
H         5.35588579786116   -2.08236663340154    0.00412538841211
H         3.81083225761270   -1.34986572034720    0.43184709047572
H         5.18876933958658   -1.21529064210825    1.54344727206768
C         5.32090751441894    0.06227770805568   -0.17124767418389
C         5.00413761578996    0.20655549624662   -1.52644960575717
H         4.47571738065164   -0.59510737697148   -2.01995803194567
C         5.34613232124189    1.33938598101467   -2.27332223974581
C         4.93367373999446    1.34613213086358   -3.73659723616995
H         5.25317056873281    2.27647057266006   -4.19719443426873
H         3.85325816427311    1.25187691070387   -3.82203051362577
H         5.39084570047058    0.50795274648519   -4.25805824942963
S        19.78016607489425    2.77359801205150   -3.23047270144519
N         8.55170066273073    1.75338767039001   -0.53996377009601
N        12.19347831298185   -1.41943061475379   -1.70221441973983
N        12.81624047732230   -6.31762666466405   -2.20645738684999
C         9.76345596472417   -0.03644378612362   -1.54308595389310
H         9.75535826591070   -0.98076707214021   -2.06354510511370
C         8.58694233337557    0.59538513009870   -1.18550645005412
H         7.63197111025727    0.15410894912658   -1.42722208263257
C         9.70627979170587    2.32107773593194   -0.22346190006587
H         9.64786800405146    3.25736174581932    0.31050121719125
C        10.93672627092498    1.77302649449780   -0.54101267205955
H        11.84131278114510    2.27657331520220   -0.23653267901912
C        10.98149254821051    0.56110944515499   -1.22526837235215
C        12.24263515369125   -0.09697264486140   -1.59874617668468
C        13.40838001813351    0.62492941004065   -1.84257987458624
H        13.41311898617204    1.70079514401315   -1.76913411228981
C        14.57297694809426   -0.06179280831161   -2.17880791892405
C        14.50793240357048   -1.45079926034891   -2.26139686173117
H        15.38975762697606   -2.01929317540507   -2.51054141178537
C        13.29219293040131   -2.09000558076859   -2.02849019679557
C        13.14716003159958   -3.55163587613263   -2.10919231184719
C        13.98083094904600   -4.34959021880685   -2.89020791993125
H        14.76401399053438   -3.91992894993578   -3.49556980869786
C        13.76943703017364   -5.71868960351067   -2.89873956847802
H        14.39542976720070   -6.37267091652768   -3.49231046877971
C        12.01706151299743   -5.56038782101742   -1.47275658516183
H        11.24664612661524   -6.08934192820229   -0.92679019844210
C        12.13425278072952   -4.18425229300126   -1.38859935324344
H        11.46632807347605   -3.59492784340277   -0.78138431450857
C        15.82739972320890    0.65279629266219   -2.44138331838424
C        15.82809151839194    1.85254322724685   -3.14704617191742
H        14.89743453589504    2.25556600290430   -3.51937566950485
C        17.00485323044966    2.52608291925417   -3.41308086188838
H        16.96457084087252    3.44650914584881   -3.97309257939331
C        18.21334993251627    2.01204160919093   -2.96202415936745
C        18.22304130394669    0.81533100258299   -2.24632933950503
H        19.16517182396753    0.42487061305396   -1.89279256430209
C        17.04790042957984    0.14344626326426   -1.99588626758070
H        17.07087659875287   -0.77401007509459   -1.42656659431979
C        19.38999099208178    4.26851786034074   -4.18346542672665
H        18.74906150087509    4.92468454073829   -3.60190275145288
H        20.34385179632592    4.75361438814551   -4.36612053476774
H        18.92819776491471    3.99757817411975   -5.12844888832920
O         7.39843288890305    4.47958772707272   -0.53151106349732
O         7.36398205186713    3.04325010799504    1.83976197705902
C         8.43328427912926    6.61833663250569   -0.49907329555741
H         7.96754105103119    7.46769010465893   -0.00403947860861
H         9.51275495172986    6.73551026500523   -0.43161742872716
H         8.13497765863654    6.60066923937802   -1.54334354242438
C         8.00293585075121    5.32304793645060    0.17132397151369
C         8.31972283814121    5.17876410038105    1.52651535641387
H         8.84803250567298    5.98048345511993    2.02005645310259
C         7.97784966600495    4.04589609730306    2.27335360114403
C         8.39020513124551    4.03918612101753    3.73664844410925
H         8.07305100276555    3.10771489513459    4.19659489334007
H         9.47033057269925    4.13638381421888    3.82241828140080
H         7.93057676921280    4.87575145159863    4.25856646526129

