35
CSD_code = CEDCUM | q = 0 | S = 0 | Stoichiometry = C16H15O3Re | MND = 8
C         6.55870743909508    1.69410383211411   12.70364318461868
H         6.16698984302034    1.54844639572250   13.70122423259134
C         7.69924650893863    2.42067920500486   12.48454493050269
H         8.22439216022255    2.86426221695688   13.31712366793464
C         8.21030108983902    2.58892233926251   11.18739860938176
H         9.11650839226806    3.16134951226356   11.05501697924508
C         7.59844008407528    2.03536005770913   10.09166657005257
H         8.02847908469963    2.17671053352314    9.11112561518438
C         6.42785018137308    1.27274001705246   10.26565541051296
C         5.90259557400811    1.11372172640979   11.60331229995181
C         4.78085501619120    0.21288080409018   11.53402711263130
H         4.33013084681663   -0.27314504414810   12.38808040737058
C         4.68857881153746   -0.23870702201812   10.19296967426588
H         4.06603946492700   -1.06233916881799    9.87265705562804
C         5.60858472865234    0.47388533291765    9.36994691056239
C         5.92798167731447    0.12972114141500    7.92830878109762
C         7.27534528609253   -0.60803040460291    7.88843123902674
H         8.08277064088061    0.02161258568315    8.25328954070352
H         7.50620438906845   -0.90559223697963    6.86777240452271
H         7.23712385422486   -1.50371847609413    8.50684499030278
C         5.99205871098511    1.39503690818861    7.06258966556963
H         5.02158358378995    1.89213016157877    7.05594266533401
H         6.25330377660235    1.13334247620943    6.03925083215168
H         6.73126838055574    2.10104199771366    7.42921189971990
C         4.84892613417853   -0.78523096321220    7.33634769883292
H         4.83688306010062   -1.75547849769090    7.82911180838074
H         5.05085710162625   -0.95152861953530    6.28050894428994
H         3.86357349100970   -0.32873493482164    7.42493952381913
C         2.37170675674272    1.69653946818810    9.24755187826939
C         3.07874213787710    2.90427851468362   11.71251759327573
C         4.41272327589354    3.59966516156019    9.30317403980377
O         2.57559853606351    3.41574381571717   12.60275232910813
O         4.76178153935369    4.54351843052805    8.75711313945223
O         1.43193892540305    1.45111282245155    8.63428593335289
Re        3.99642951657236    1.96339991097760   10.27446243255209

