36
CSD_code = CEDDAT | q = 0 | S = 0 | Stoichiometry = C19H13O3Re | MND = 8
C         4.41734933358063    0.81095736051987   10.61688979271294
C         3.30203120886282    0.08281194769271   11.06835813480673
H         2.80289511771472    0.37151332441746   11.98319534841598
C         2.85626429801581   -0.97415498422979   10.31732764528896
H         1.99318932105358   -1.53533439190359   10.64314386404673
C         3.48829280244820   -1.33920069124497    9.11599082445216
H         3.09387771966386   -2.17158457122175    8.55243920701345
C         4.57689056020522   -0.65357293500579    8.64099913260318
H         5.04592959087509   -0.93060652559169    7.70701373987994
C         5.06607464595266    0.43644595497128    9.38197358230144
C         6.09156581261317    1.41886027546400    9.10705976501569
C         5.98936040187576    2.41924477140451   10.10881901864947
H         6.49145596425116    3.37772939752758   10.07859219203192
C         5.05228326188254    2.01235194358081   11.09893751704735
H         4.64542454882577    2.65344930049932   11.86805312780644
C         6.83107489798881    1.56549639058833    7.80204727049238
H         7.09245656728004    0.57529959830396    7.41629129233277
H         6.16720647387879    2.04525052792413    7.07296052776975
C         8.07738778446410    2.39021982531926    7.98481318763814
C         8.10558110526368    3.72972162823279    7.62274523562270
H         7.23661832134697    4.17835401662187    7.15991738162910
C         9.23653075443507    4.49493274321406    7.84997518938551
H         9.24552820746901    5.53652623816909    7.56306682829239
C        10.34957696778226    3.92853775811546    8.44642692003111
H        11.22962847082292    4.52709839250714    8.62805751883579
C        10.33027653034215    2.59220102542612    8.80912066236052
H        11.19407781844342    2.14340763707949    9.27551903771416
C         9.20108405778485    1.82776759381929    8.57876863622137
H         9.19206497024742    0.78314248670737    8.86334181220260
C         8.47196582224067    1.38324870976838   11.76519580943414
C         7.74573953691385   -1.02548227140510   10.52438843120724
C         6.48650170186781   -0.23400355530656   12.94686572616208
O         8.22609885762964   -1.95497425843283   10.05853374606715
O         9.42227166694375    1.95128132913253   12.06573284634782
O         6.20829905191423   -0.68300752795917   13.96126536557777
Re        6.81474584711730    0.54807153529452   11.19337368260305

