35
CSD_code = CEDGEX | q = -1 | S = 0 | Stoichiometry = C10H14CoN2O8(1-) | MND = 6
Co        9.98319796031090    0.80394517806283    2.92030016486577
O         8.71165116195811    0.27134425077630    1.61899662288749
O        11.44154448119243    0.08786290119775    2.00470411630083
O        11.03112563655477    1.72167552934090    4.20440540885907
O         9.83472238870683   -0.75077905983598    3.93873887262670
N        10.36068931238183    2.37517238591602    1.61201844347074
N         8.38488032788320    1.35047050415257    4.13086512474243
C         9.92402424590306    3.73437978419389    1.92515039644595
C         9.77320463348235    1.94835774508281    0.32588674614811
C         8.57052189981738    1.00281166715054    0.58878895201133
O         7.60756650984890    1.01346483604827   -0.15759977617103
C        11.82679569781230    2.36029003295960    1.51445599370072
C        12.25810277824588    0.87164673948085    1.42712572416929
O        13.26350676500612    0.55439717746413    0.82122424428342
C         7.44081327703889    2.38225908686642    3.70566067200024
C         8.99640770159854    1.73634035509690    5.41882890729881
C        10.43163924015786    2.27712452437430    5.17813342711301
O        10.88107565802330    3.15830987273393    5.88955217027743
C         7.65873470660223    0.08277023625261    4.28870497967772
C         8.72531995290944   -1.02618307008361    4.49376136824581
O         8.47075622616988   -2.01330607940422    5.15679789662916
H         9.47411253778484    2.80321251859924   -0.29028621928385
H        10.49767571206102    1.35005808254580   -0.23357961390870
H        12.25746096648026    2.77125253261609    2.42954061961501
H        12.18064620417536    2.93223551878734    0.64753814003138
H         9.11834844879931    0.85430062936006    6.05272637455559
H         8.38736584206494    2.47106072861444    5.95518986185648
H         6.95379749121229    0.12190371081960    5.12863405895925
H         7.12231578019751   -0.14760998176138    3.36621949028814
H        10.38686893447893    4.45097210020090    1.23429505523033
H        10.22287278042090    3.99284296518611    2.94086530554915
H         8.84309925416406    3.81424435194600    1.82607917373902
H         7.10870857816233    2.18104108994488    2.68735418728858
H         6.56151244962630    2.38693543306558    4.36273952843217
H         7.90883445876761    3.36359572224832    3.75468358206492

