201
CSD_code = CEDJIF | q = 0 | S = 0 | Stoichiometry = C76H100F6O14P2PdS2 | MND = 4
Pd        5.58670094812649    1.62018745406498   21.78956686079604
S         4.89270764525564    1.99543865798096   24.40074406507879
S         4.19497975817006   -0.49616835046937   21.91936174535015
P         7.56630036501694    2.50586057677433   21.37762865068262
P         4.94642543621514    1.93185828649578   19.69009252606955
F         3.27617313979102   -2.11098908777641   23.85413495348981
F         1.76754558107801   -1.43664808146635   22.46337482961020
F         3.17622100568916   -2.95688086058978   21.87796594017837
F         6.72747762583840    2.30096247871518   26.38817418305711
F         6.84633644895354    3.72379502320814   24.77382341224112
F         5.36102688785371    3.96639890753092   26.31681869946821
O         6.02012764790964    1.27746771143034   23.81123670935292
O         4.02587104657881    1.29654957758590   25.28142294319199
O         4.35716583484016    3.05349810824967   23.56740823849907
O         3.78740614235132    0.68898330882648   22.64593385154766
O         5.51489487703503   -1.00412520143885   22.19232594809257
O         3.86246387932690   -0.44242614976560   20.51531158115436
O         8.31576324655462    5.38197032768455   17.52184975823867
O         6.74475552299225    7.03751440089294   17.23470405343836
O         8.27561152386039    2.84291286649612   16.17404834860575
O        10.09484345327312    1.43643853185381   16.13146199114433
O         5.98946225964990   -2.52754347936520   16.01452315082891
O        -0.90659616037786    2.80694992902436   19.44762439319753
O         7.92380097940349    8.21395539985886   22.72322659449091
O        11.32903212265134    0.16499246428583   25.31700033110004
C         3.04066277985618   -1.82030447213721   22.57733714700709
C         5.98110521861268    3.04636126739054   25.56337090784116
C         5.46610020527299    3.53124306082889   18.96033769549950
C         6.80284816082253    3.72513690190871   18.55776396327466
C         7.10595788310200    4.94607338667480   17.99051112045607
C         6.15842968606625    5.95683533047357   17.82552091158836
C         4.85618617642350    5.77731773381974   18.22081488822205
C         4.53536387326081    4.54841172851526   18.79090565736110
C         8.07013591285844    6.64708219316758   16.94508834833250
C         8.36088996081348    2.11676528042626   19.78604926521303
C         9.45416523290352    1.26161859003260   19.74329390483470
C        10.11665967613903    0.95716484658928   18.55740675300880
C         9.63590742643992    1.53997055133604   17.41054847970450
C         8.53770620107499    2.40191036228224   17.44128429202886
C         7.86890772512708    2.71174512224070   18.60702302459672
C         9.31512999627616    2.33202410419779   15.36705502253598
C         5.56098540757546    0.71839629734653   18.50355365013226
C         6.20698424560302   -0.40865985547104   18.97945551978109
C         6.48461607092134   -1.48880525287483   18.14969650980392
C         6.05129562563004   -1.40008356718441   16.81672201474553
C         5.63570748564121   -0.16966920098071   16.26482204892765
C         5.36502453828351    0.87283692924865   17.13652629490661
C         5.52706941303234    0.02570458434949   14.75349575520798
C         4.32157021584809   -0.72063718520117   14.16641333298184
C         6.81540092790343   -0.49800695913832   14.10152134365982
C         5.38662803378390    1.51063389634294   14.39259839373096
C         7.25842154734234   -2.65346074534141   18.76786218352716
C         7.74881889997033   -3.70529960507166   17.76552601536062
C         8.52264631743940   -2.06760454830141   19.42028482640195
C         6.40473000650136   -3.33006113212002   19.84954306278013
C         4.85144686378024   -3.32116949417212   16.30222121680131
C         3.13999242034498    2.03900615437383   19.61942560551180
C         2.38396002951524    1.48880101555725   18.59637943142718
C         2.51523095744657    2.61507163848665   20.71651933820308
C         1.13140874765801    2.76577106384258   20.75992521122783
C         0.41216775125954    2.40456470810371   19.60760415923348
C         1.00788504370496    1.64911612123123   18.57629473779287
C         0.15685488058030    0.93298750412802   17.52932752940153
C         1.00492970132301    0.01358543363913   16.64280837844144
C        -0.58475133339822    1.91240778424088   16.60938831625521
C        -0.99781760373026    4.16548650105686   19.06726707498245
C        -0.85691544811191    0.05668144731352   18.27926072216315
C         0.53392485618221    3.17599751923449   22.10749365261893
C         1.18336283418773    4.47327924188577   22.61176950419645
C        -0.98973912651567    3.33941594656059   22.14726029443144
C         0.87224883695704    2.02997164926382   23.07963091256175
C         7.58708156218132    4.30477019453129   21.49182277809589
C         8.70589613333573    5.04474302220211   21.12344726904327
C         8.78332967501333    6.39452203247485   21.42120372839560
C         7.71683450229337    6.97548584355911   22.14175081782008
C         6.49142270246464    6.30613653537587   22.29299990358875
C         6.46944698301967    4.94753976084171   21.99348471533902
C         5.16459781548323    6.94528368376664   22.70140128243502
C         5.18771750573765    8.47667424096395   22.77528412470783
C         4.68338331952021    6.36933987944920   24.03935567697344
C         4.14168009199242    6.58319156008015   21.60999579898198
C         9.40988227339108    8.48289187804665   20.23203097305062
C         8.13728214910634    8.11616867013985   24.12103588657459
C         9.96282478475858    7.23601224928502   20.93827130650580
C        10.82631450676111    6.46469505180195   19.93133118957326
C        10.32379505537202    0.73324274296569   24.54917930160509
C         9.34722676254611   -0.07682355519420   23.94037625421898
C         7.54988553031251   -1.32493765492639   25.01694346926850
C         8.56487179287798    0.50883488300800   22.95127022952726
C         8.68894083974114    1.85767804251746   22.64031038032050
C         9.50283069983948    2.67498315434300   23.40950327635553
C        10.31988739155331    2.13348456554306   24.38935083601731
C        12.33848109880899   -0.41698746042787   24.51664498010254
C         9.83443654620087   -2.15315504163200   25.43170073985046
C        12.61248082297736    2.88257069956766   25.19397687255306
C        11.09340967689825    3.04172073417800   25.34244729591049
C        10.75153699875307    4.51961258413826   25.11713830637566
C         8.83614128288251   -2.42168872597789   23.16529293226438
C        10.86697635307095    7.66697741166762   22.10052301599817
C         8.94297592746702   -1.48577772753899   24.37903524681802
C        10.66860732160181    2.67771954270445   26.77270458249509
H         4.11762582789407    6.54843997480857   18.08205412777336
H         3.51583347708210    4.37431736556761   19.09843675486409
H         8.77322193841779    7.38506075313669   17.35528345311053
H         8.20295430356696    6.58586651486950   15.85069301220259
H         9.81542094118461    0.83444852833740   20.66652256020651
H        10.97524330288191    0.30777778215611   18.53746665460806
H         8.88956471284390    1.80845885005335   14.50006535767912
H         9.95183722100777    3.16260867218096   15.01530211762714
H         6.43176711662734   -0.45335457302537   20.03869798194938
H         4.97790002966971    1.81348763951683   16.77900416568002
H         3.42186858288475   -0.51084477528355   14.74046602148553
H         4.15633597327574   -0.39912606721362   13.14007945047444
H         4.49601584669682   -1.79056679848147   14.15690546186772
H         6.91383684170290   -1.56837020537583   14.24766150014332
H         6.80433657658066   -0.29216755697460   13.03316097408462
H         7.68411122379394   -0.01531005163649   14.54280113542284
H         6.16777057189850    2.10747485516143   14.85819325990730
H         5.46825513334356    1.62441799332133   13.31332308424791
H         4.41673444323436    1.90127772294080   14.69181515221058
H         8.46447016234335   -4.35815575672951   18.26251200545525
H         6.94741519064084   -4.33054047734584   17.38995135457729
H         8.24583933937153   -3.23388054175119   16.92179522871542
H         9.10401294158652   -2.87004009353306   19.86837642782865
H         9.13365299631510   -1.57192476020618   18.66893983810927
H         8.28442840974937   -1.34971091361268   20.19713375083613
H         6.11293604428119   -2.62447880765636   20.62267242021997
H         5.49372960054801   -3.74852020974798   19.42749866558425
H         6.96889430861333   -4.13811731860561   20.31034599803866
H         3.92469412868021   -2.76993839841838   16.11286400956507
H         4.90760555545920   -4.18266543452676   15.63804691288752
H         4.83902942663039   -3.65551738921284   17.34240841938700
H         2.89656979921947    0.93480099677259   17.83014373481072
H         3.12369940126784    2.92905485581124   21.56024193261604
H         0.34730150844403   -0.54952220844961   15.98307369960461
H         1.68857820968522    0.58978653966347   16.02234048877402
H         1.57024476364669   -0.69582851639030   17.24225532413097
H        -1.38876699939037    2.40939498708549   17.13952442018615
H         0.10111336725276    2.65737496355548   16.20946062726217
H        -1.02201464505831    1.36887861556733   15.77419069277838
H        -0.46669236784670    4.82067779751438   19.76351562470127
H        -0.58336474403766    4.32671477454456   18.06535706315846
H        -2.05820112767955    4.41318541282939   19.06595979107791
H        -1.51001779205867    0.66708937270729   18.89466111159302
H        -1.46624146702243   -0.50050635265926   17.57051135060686
H        -0.33448996038292   -0.64873740260877   18.92166429684166
H         2.21410125345376    4.30387745924421   22.90815120963405
H         1.15237879763200    5.24821443159814   21.84643101944451
H         0.64525123991774    4.83369457914520   23.48555337173243
H        -1.30019375133223    3.42167273417751   23.18750886506295
H        -1.32503902059118    4.23720801377832   21.63720201663747
H        -1.49057541805241    2.47935580424370   21.71409629160021
H         0.41660921723025    1.10112118830758   22.74106356307033
H         1.94143267957666    1.86785726307695   23.17169884806588
H         0.48810158544691    2.26408996815951   24.06997860746380
H         9.51561751712878    4.53242975994465   20.62970703531203
H         5.58491696879580    4.35228498265121   22.19376122782457
H         5.72126540914531    8.84537230484299   23.64365499514919
H         5.64032885382357    8.90114714608066   21.88287708291863
H         4.16407285442222    8.84061221960218   22.84477191857867
H         3.74497066993410    6.83932026330875   24.32455109295676
H         4.52123601294910    5.29733122875470   23.96939302717839
H         5.40636327468857    6.54950217339585   24.83174451571075
H         3.18458628892446    7.04184916597288   21.84661017143623
H         4.47798536528055    6.95478693557229   20.64438638815598
H         3.99299002577440    5.51144975404239   21.53526128165982
H        10.22453503771475    9.05983558741419   19.79931379656142
H         8.72403401073807    8.19474426879994   19.43865517428273
H         8.87142032657416    9.11391247265853   20.93111506938947
H         7.29939124402311    7.63382036711338   24.62952498902743
H         9.04501703600162    7.54517373986783   24.34365203009617
H         8.24964774948745    9.13729598562552   24.48255707439843
H        11.36545709076957    5.65230789259265   20.41340880034259
H        10.22594000991004    6.05818738314164   19.12072529894236
H        11.56354961776352    7.14107248793544   19.50316459223290
H         6.83337671892330   -0.89906120678543   24.32143487960109
H         7.17786320318405   -2.29599078607981   25.33648666207376
H         7.60501536461277   -0.66931110073356   25.88366206216430
H         7.80575409095253   -0.07198317520601   22.43494872053189
H         9.48049777503775    3.73506862139348   23.22562340893828
H        13.00882133770141   -0.93727758156676   25.19888170965094
H        11.92674757952910   -1.12480575219649   23.79178637696218
H        12.89863023813855    0.34748761975682   23.96553511778217
H         9.32895302884532   -3.04668783789421   25.79429127874526
H        10.79195253730702   -2.46452546002268   25.02447600069554
H        10.00570425169149   -1.49738813699345   26.27907148124946
H        12.94320018566063    1.93076613873032   25.59353745555384
H        12.90614957133954    2.95835362335292   24.14827879232174
H        13.11829424597765    3.67065563870167   25.74807087858274
H        11.24315623559485    5.11780713713712   25.88199835334626
H        11.10353863741061    4.86298049908639   24.14617060846888
H         9.68035611218583    4.68920413466175   25.19240459026593
H         7.96478751365786   -2.18223954843690   22.56386776500959
H         9.72919402226228   -2.36097926667086   22.54409949117250
H         8.72677351637577   -3.44859785915439   23.50667737103039
H        11.13804774033435    6.81023536535672   22.71389416326978
H        11.78041373112785    8.10963513477520   21.70874676221068
H        10.37566568854708    8.40779488479704   22.72069211328918
H        11.16327872142887    3.33233794267072   27.48723362900176
H         9.59253558984823    2.78976691079541   26.88217245678121
H        10.93182071663041    1.65028066751346   27.00227575270292

