73
CSD_code = CEDQEI | q = 0 | S = 0 | Stoichiometry = C33H27Cl2N9OZn | MND = 5
Zn        7.79023646919706    8.91002856313257   10.40439939863861
N         7.90331390176590    6.83642643475056    9.66310839712359
N         5.98642460143365    8.56547335314028    9.33093926786699
N         6.37864567214773   10.47211770392307   11.05424277755184
C         7.04282742833262    6.56539575744404    8.68005855478992
C         7.09099716224193    5.35788225169498    7.98857477936373
H         6.37739763859974    5.13850465182394    7.21065557689703
C         8.06363236696379    4.43179738763347    8.32846894138204
H         8.12243611113184    3.48861279073548    7.80558002267485
C         8.95327053490692    4.73239471897847    9.34686429371306
H         9.72457795672309    4.03811175311396    9.63863637773435
C         8.82894166444433    5.95528913369787    9.99102663288310
H         9.48499549951073    6.24393507907355   10.80065980835982
C         6.07280610508172    7.63365396865708    8.39160727955294
C         5.33790536394709    7.72726769024080    7.21585635005590
H         5.41629765966784    6.97431361025694    6.44881120296199
C         4.50509625942000    8.82899209064386    7.02231030206435
C         4.45070149455879    9.80099991690228    8.02066916924916
H         3.86029691068570   10.69005696610093    7.86993561696606
C         5.22339224768871    9.63729818405135    9.16467659555543
C         5.33013431465625   10.63160509654474   10.24445861710034
C         4.42765729079714   11.67581162758519   10.42736150551335
H         3.57379012171520   11.78745271842744    9.77857056762942
C         4.63668850083694   12.56476302737714   11.46913943883858
H         3.95129789360309   13.38358073298129   11.63085466574870
C         5.73208455363199   12.38600314656655   12.29804793530714
H         5.92823882521078   13.05695264505319   13.11867435681986
C         6.57924366144905   11.31551891481914   12.04861626924942
H         7.44553416971256   11.11627986175290   12.66441793303662
C         3.72708187190208    8.97198484972830    5.78602517875355
C         2.41139636435108    9.43159041146692    5.82212101247989
H         1.95380740095398    9.66944411058597    6.77127885746523
C         1.67798998067957    9.54989732556703    4.65914438992288
H         0.65565267402299    9.89669126255032    4.70129298822117
C         2.24255019047113    9.22536074673485    3.42967925051129
C         3.55600955870770    8.78150792198376    3.39024862801277
H         3.99664346719857    8.54176941324542    2.43732483785245
C         4.28949625139717    8.64983334210267    4.55383757537030
H         5.31806249535768    8.32463303690659    4.50519547604643
C         1.41562183748944    9.35563980613034    2.18099019778990
H         0.53578546237743    8.69550433735351    2.25821908385318
H         1.04570421280780   10.39088709514007    2.09123323026950
O         2.16350956301038    9.01298377357330    1.03739716476206
C         1.39763864343177    9.08080308962998   -0.13594737779828
H         1.16120790491409   10.12003497122725   -0.40361517153307
H         0.46474930358793    8.51283793884943   -0.03810851714411
C         2.21223339104428    8.45956786259808   -1.28516105933274
N         2.45601708159975    7.06093605528136   -0.99561349957048
N         1.62147387275871    6.36944934095681   -0.22110584940124
N         1.45551229079623    8.58100007102542   -2.50641758304803
N         0.18883666759552    8.99679835840534   -2.49928381424821
N         3.47864700492104    9.13945221162788   -1.43653703897852
N         3.64622003765007   10.07844640113426   -2.36803344021006
C         2.06380977735464    5.13220879763637   -0.22311577722155
H         1.55580095657028    4.37689478353205    0.34207937136784
C         3.20925903217427    5.00666030666013   -1.02511358938890
H         3.78418871857721    4.12446385669161   -1.21586903888277
C         3.42676230975024    6.26940565855905   -1.51314062937101
H         4.18915955881602    6.65174049875201   -2.16073201504390
C        -0.21398637665300    8.94554148056092   -3.74933677726503
H        -1.21289872189308    9.23704794403825   -4.00502399812902
C         0.80846841661635    8.48239233921414   -4.59242456550210
H         0.77070578102055    8.33970664323894   -5.65219941655149
C         1.86815114224662    8.25486691230041   -3.75450431969590
H         2.86107094542416    7.90883735128870   -3.95186004393452
C         4.85953746830810   10.55285050625472   -2.18683557696271
H         5.23582016880126   11.32323117126737   -2.82925539165125
C         5.49476888063926    9.91662863280143   -1.10907269147452
H         6.48089051415368   10.09294062819025   -0.73276570184979
C         4.56983481841402    9.01585325314330   -0.64570825115126
H         4.59983683054340    8.31138824952522    0.15838000429230
Cl        8.63604526383271    9.93886333071478    8.58839441895787
Cl        8.82006460940936    8.60260414241023   12.34311683390240

