29
CSD_code = CEDSAI | q = 1 | S = 0 | Stoichiometry = C12H12ClN2PtS(1+) | MND = 4
Pt        7.82069401767817    4.21353864169388    3.62422745181370
Cl        6.67770889498545    5.11648530357937    1.89566750426232
S         9.09307049123215    3.53744767178363    5.50538940749518
N         9.50140950876548    4.08436371905331    2.58601133650678
N         6.28410198635606    4.36907423053314    4.86282561910330
C         9.59187380677893    3.80991123611862    1.28514477681889
H         8.65711078333847    3.71622299440203    0.74771866382782
C        10.81072749623301    3.66318809925342    0.64507839499054
H        10.83943797379676    3.44468322025460   -0.40951009571083
C        11.97539612700857    3.79918048917146    1.38272896523185
H        12.94264332108987    3.68882423393045    0.91889707730179
C        11.87779731105636    4.07543296952659    2.73923477419923
H        12.76388591940002    4.18308873594850    3.34443389524927
C        10.62561693746597    4.21834358246798    3.31553234582304
C        10.47050678251112    4.54331750883451    4.77600063615431
H        10.22131554126700    5.59968993930237    4.90335800672851
H        11.38469268921157    4.32152948618422    5.32652500355045
C         8.07700102715360    4.75418935889295    6.46908412422933
H         8.27168991570535    4.59880903528618    7.53011772393029
H         8.39841393988954    5.76002116165475    6.18752354065836
C         6.61847739660606    4.56799227552001    6.15233258721637
C         5.65405170156770    4.61270342319215    7.14641726563657
H         5.94651355813889    4.76770188133225    8.17274036649092
C         4.31731783565071    4.46158387442832    6.80529123483047
H         3.55466332701992    4.49711875713497    7.56680119349820
C         3.98799978540680    4.25955203951730    5.47495950790909
H         2.96357192240568    4.13463247728028    5.16564273231188
C         5.00207005437736    4.21574695412554    4.53331998793650
H         4.79073994790264    4.06372669959687    3.48280597200607

