46
CSD_code = CEDVIT | q = 0 | S = 0 | Stoichiometry = C15H26CdCl2N2 | MND = 4
Cd        8.90038336077607    8.87776801423147    1.35705028392979
Cl        9.00888705918591   10.87628975859903    0.10699151316568
Cl        9.42746518929585    6.71127347967247    0.59924743690788
N        10.49825526044339    9.26240411303262    3.01701721920815
N         7.69769956738749    8.50156124573586    3.31550277881748
C        11.62595999928216    9.60627979177310    2.13470593888323
H        11.39897556367940   10.56011401477586    1.64767197211199
H        11.68799809523274    8.82847252979859    1.35997845038095
C        12.97919295688642    9.67722129837692    2.84129162969215
H        12.98773252550530   10.47884198988040    3.58265580549880
H        13.74947894124247    9.90242184856688    2.10286519315249
C        13.25846220331126    8.33969041618366    3.51594734951247
H        14.21095546979259    8.36709765395552    4.04859179774494
H        13.31702056261503    7.55551564958282    2.75804574037624
C        12.12271063902676    8.03016957536068    4.48480571020928
H        12.12571271648403    8.77745244898961    5.27947601522625
H        12.27851261971629    7.05353857207186    4.94610914378732
C        10.77172715786984    8.01672575696953    3.75031404314444
H        10.81580601882467    7.22098482935078    2.99298549601446
C         9.62393984492279    7.68782530082719    4.71853950630937
H         9.91580644366423    6.78987949271025    5.27349442112210
C         8.30443810898689    7.36106034011762    4.01383900292994
H         8.47099269845957    6.57191859047784    3.27476568863204
H         7.60257705864719    6.98271146010988    4.77583517061361
C         6.35003460151254    8.11912201485598    2.87943891270996
H         5.72105505565285    7.90435243131659    3.76095334360215
H         6.42972298804167    7.20271101822864    2.28501226168955
C         5.69397467370768    9.22292636049250    2.05591888525474
H         4.69002170179864    8.90578989613442    1.76695990605154
H         6.27291132659481    9.39365624337631    1.13655474976165
C         5.63515582281639   10.51319436219739    2.86700466072952
H         4.96080991352603   10.38052955952170    3.71800774469580
H         5.24687228589634   11.32623414768453    2.25334814676027
C         7.03563199214499   10.85832617373019    3.36445291153891
H         7.67523177053793   11.06971742947967    2.50356564053483
H         7.00224353669015   11.74888266397945    3.99454858025424
C         7.61061525241087    9.69238627165171    4.17060971908766
H         6.90753585679570    9.47692885499050    4.99959588345426
C         8.95878764070221   10.03150625342834    4.83018694853212
H         8.78877808781707   10.90862484698453    5.46505200952365
C        10.11453721631638   10.37885977781223    3.88333414021342
H         9.83576983971053   11.21649182674311    3.23723048867046
H        10.95635494829596   10.70647520511270    4.51066052794915
C         9.37942240856879    8.84147095865089    5.68565956509071
H         8.59057524014066    8.57777778352378    6.39350169064841
H        10.27336777908343    9.07371774895452    6.26357597587590

