57
CSD_code = CEDWUG | q = 0 | S = 0 | Stoichiometry = C27H26ClNORu | MND = 9
Ru        1.16050924259502    1.71687851574493    8.23285049776094
Cl        0.29631591489927   -0.43842614618587    8.53955805178423
O         2.77370071340973    1.08500136486626    9.34008239841940
N         0.26207714481269    2.14767444694161    9.96645121101429
C         2.15725351178951    1.07680589600629   12.97092086613383
C         1.89559713031314    1.31028619464726   11.57118874070379
C         2.63603827823816    2.21916199683859    6.58009515213548
H         3.67396385160656    1.92171653796531    6.47061034587612
C         2.33664738188912    3.44035333200570    7.25092433085363
C        -0.96678419336599    2.80320938010808    9.79171490520134
C         0.68731522950167    1.93046320584415   11.17679752647523
H         0.03413936252777    2.28113643452258   11.97236348426542
C        -1.19251237791240    4.07111212750357   10.32446927213808
H        -0.40982758068251    4.55654316452768   10.89095822964091
C         0.26469369431165    1.83123440992953    6.10469641044898
C         1.63083541476417    1.43148908873588    6.01769188002571
H         1.88443061422861    0.52879732789161    5.47262757138205
C         0.99237276674118    3.83709640900174    7.31313134645129
H         0.72810950520419    4.79412974212335    7.74925728747093
C         1.20136734016406    1.27506785395848   13.98440178882461
H         0.19840686975882    1.58652232963742   13.73800561853373
C        -0.03302564940644    3.05517941869577    6.72309314855308
H        -1.05027470664850    3.43066951447718    6.71732772127430
C         2.88703010930429    0.96514119735891   10.60477204498023
C         1.49521205999201    1.05522323270322   15.30762022684374
H         0.73345441916504    1.21581383489990   16.05694374690387
C         3.44442752198882    4.30232234749964    7.80812186882161
H         4.38032832356967    3.73696824177137    7.73842604984260
C         4.15729880065437    0.49148278771736   11.07443694901938
H         4.89207576351366    0.26321540453126   10.31702577552921
C         3.43048968507895    0.60303431942611   13.37559047760655
C         4.41546118924684    0.32886807219952   12.39028125035941
H         5.38112528306898   -0.03166645543426   12.71649279345301
C         3.71124331446986    0.39093422415001   14.73444250898768
H         4.69471185674439    0.03548583835792   15.00810715230767
C        -1.97849670980350    2.16519893041568    9.07191126566780
H        -1.79949456026392    1.16438307727702    8.69989090509162
C         2.76212096147000    0.61903784544685   15.69599094839426
H         2.98203390959434    0.45353654764741   16.74001982672483
C         3.19993594973011    4.62718597679486    9.28342178921315
H         2.33625862496887    5.27748309867422    9.40358127934720
H         4.06692994185766    5.12962642831987    9.70584535684505
H         3.02572894021123    3.70834833905367    9.84299462510718
C        -2.40386952872993    4.70412231805389   10.10858750163193
H        -2.56994258377508    5.69172203323575   10.51337640431118
C        -3.40077409582194    4.07606675015524    9.38123000916041
H        -4.34476489665418    4.57382997958217    9.21720376726263
C        -3.18731480721766    2.80365396348871    8.87229798198487
H        -3.97031031475151    2.30417655711236    8.32109382060921
C        -0.80373774585850    0.97634229389716    5.49745700322977
H        -0.88962804874391    0.05281097484754    6.07484966092938
H        -0.54830080895890    0.71103951498322    4.47242113433578
H        -1.76531455942644    1.48437897745817    5.50879369426812
C         3.58941494803073    5.58211692225993    6.97914192400395
H         3.76573238859172    5.34291029743009    5.93243512958911
H         4.42801617448455    6.16955484636500    7.34474759279031
H         2.68946903554210    6.18954873651338    7.04602974949876

