60
CSD_code = CEDXAN | q = 0 | S = 0 | Stoichiometry = C28H28ClNORu | MND = 9
Ru        3.20195338456216    1.13919555599122   11.51361017715604
Cl        2.36776602801909   -1.01891679703937   11.88260055032953
C         1.96907415034935    0.69652352070521    8.82909205819101
H         1.12048472271946    0.87448371934969    8.17267921805399
C         3.04678224846272    3.37304703615968   12.07597642405718
H         2.52166788031178    4.19807012322680   11.60635936808453
C         5.29036736908669   -1.27086118716527    7.08626924089206
H         6.14528428671752   -1.73159615999958    6.61113222171394
C         3.04871441361769   -0.04026467702522    8.28754309475973
C         4.27505086467463   -0.16823010449588    9.00455812135738
C         4.38333531190628    3.10316557187404   11.72696899971049
C         0.31916229506771    3.04076105335985    9.59578914722368
H         0.91004967807534    3.34540283003540    8.74305897248233
C         0.71587295787975    1.93551480133649   10.34526228282216
C         5.05575405201714    2.07861607146777   12.44746361677014
H         6.10441288768800    1.89261396742607   12.23824518469519
C         5.39017840025233   -0.77891147944651    8.34054956897540
H         6.30987595942090   -0.83479710618663    8.90337448601657
C        -0.05688030898517    1.53695271546981   11.43673839167086
H         0.23701962412928    0.65156115124969   11.98654872323634
C         4.41484752382423    1.34390026025475   13.44752990027578
H         4.96170960174711    0.59747313653715   14.01258213748054
C         4.06693938860050   -1.21833520498447    6.36792309433435
C         2.93319461224520   -0.61782238022587    6.97095049912976
C         3.97862077949342   -1.76948433454400    5.07996203011789
H         4.86406847974444   -2.21474617421331    4.64843829422300
C         1.73328636903618   -0.64408388001829    6.23609904322840
H         0.82357909400783   -0.24818563488044    6.65969345866317
C         3.05055930705278    1.59931738177255   13.76455298277433
C         5.10818416069877    3.91295812626461   10.67815670458834
H         6.10521069441946    3.47828603687134   10.54440228450025
C         2.36544242556954    0.79744059823512   14.82658895022180
H         1.43692007048362    1.27010031659160   15.13843131854452
H         3.01325736490959    0.66561123886734   15.69162746662264
H         2.13263994088075   -0.19203445165259   14.42347917020078
C         4.37849537352271    3.83891315371734    9.33483819454173
H         4.22609905788704    2.79708135654755    9.05204479300289
H         4.96586767293965    4.32500664796413    8.55932929488030
H         3.40978750215578    4.33084771623707    9.39050531671338
C         5.27248286936628    5.36476713539269   11.13710926123601
H         4.30406330812743    5.84541667547362   11.25685624357983
H         5.84435597573691    5.92485989843649   10.40126304194502
H         5.79829199877429    5.40809392021827   12.08877328474314
C         2.39601053149784    2.65794333150267   13.10727756458485
H         1.39553247176795    2.94656058857336   13.40868732537616
C        -1.58076439261338    3.36912518590346   11.04678911403859
C        -0.81205412013463    3.75058890384881    9.95451523277444
H        -1.10369012325920    4.61336527712810    9.37251810303881
C        -1.18973457476333    2.24917041310274   11.77513269343660
H        -1.78813678101270    1.92832581419348   12.61575446496725
C        -2.82194166850993    4.12289793376582   11.41517990241550
H        -2.78721198297958    5.14169976027431   11.03687073113592
H        -2.95411735760219    4.14982364599780   12.49458499744043
H        -3.69506986724574    3.63172977123980   10.98465491081881
C         2.79828790174089   -1.75438851642972    4.38433627643768
H         2.73462613082130   -2.18025942946680    3.39418710793205
C         1.66799333974561   -1.19310668001428    4.97934523727152
H         0.72769241020526   -1.19682087814753    4.44693421379994
O         4.49849755214044    0.25948782387189   10.18531148260032
N         1.87135075297939    1.20784490940507   10.02126402815555

