52
CSD_code = CEDXEQ | q = 0 | S = 0 | Stoichiometry = C25H23Cl2PRu | MND = 9
Ru        3.31685682678539   10.34254468160048   20.48208206930252
Cl        5.39318045801655    9.47276590874445   21.17294616601828
Cl        2.46890163333400    8.15560070673452   20.64099544301983
P         3.91392604546370    9.61685195706507   18.40523612110719
C         2.82780248504491   12.44638131370203   19.86720344769143
H         3.03003966354559   12.99153972933921   18.95087320170203
C         3.73241021768888   12.52972877321799   20.94281235172124
H         4.63336997218603   13.12480451282526   20.85344825566616
C         3.41954801863594   11.89906269353981   22.17124968284843
H         4.10007678476977   11.99832503347669   23.01018875587838
C         2.22035517721633   11.19433870240420   22.32127036210913
H         1.96136962374931   10.74545992576732   23.27272073565278
C         1.32197581420379   11.10232771428676   21.22715702378287
H         0.37979442854311   10.57988894334960   21.35346420517688
C         1.59653265736855   11.75857672600621   20.01899960443577
H         0.86740533238134   11.76088158983770   19.21701231746216
C         4.64951022205069    7.93121810616082   18.22833072366691
H         5.45376419946499    7.90315480373943   18.97263883539930
H         3.88142059771989    7.21069441214265   18.52056833907141
C         5.16720060723220    7.69681330113241   16.84631250539802
C         4.33111492505286    7.23192346794617   15.83730723709850
H         3.29744003535724    7.01112007301915   16.05980762190952
C         4.81365812410133    7.04885853374934   14.55350657385998
H         4.15268313723633    6.68773602043390   13.77902531545087
C         6.13818761472183    7.32655897758662   14.26092232524147
H         6.51333397553170    7.18357763656133   13.25833429600107
C         6.98004000965924    7.78284687367431   15.26095705098725
H         8.01559663757480    7.99673039744059   15.04137046555849
C         6.49716227810999    7.96909669878483   16.54347037399406
H         7.15375465316326    8.32821130405721   17.32275299486404
C         5.14052409331130   10.64933453490991   17.55137469756790
C         5.23220837605928   10.68957095347319   16.16251171797326
H         4.53251920920954   10.13204341807448   15.55659949880228
C         6.22453653707506   11.44098947744068   15.56042035314606
H         6.29308792104027   11.46926369586331   14.48289450192283
C         7.13334757097200   12.14604602835985   16.33326043201575
H         7.90793376030009   12.72885873107483   15.85684832691803
C         7.05352302051385   12.09620797913766   17.71520221018659
H         7.76986342965642   12.63406664145902   18.31858770477900
C         6.06041031141780   11.34967531721448   18.32398017266640
H         6.00332701634569   11.27676428055433   19.40294779800361
C         2.43929044408232    9.65271736696734   17.34840731465198
C         2.12475423178264   10.78815343304938   16.60572422792192
H         2.80875144239232   11.62587492498024   16.58989157095062
C         0.94512259439192   10.84484000723103   15.88602093948277
H         0.71254762425095   11.72556827381747   15.30471563849241
C         0.06106545693138    9.77841783066293   15.91452905168054
H        -0.85884239666491    9.82481205700503   15.35053160219869
C         0.35197423033676    8.66129305574939   16.68074661524837
H        -0.34614433205467    7.83835035016623   16.72234862612440
C         1.53060169904449    8.59839916601791   17.40171039668187
H         1.73698560369232    7.74723295847203   18.03378220052510

