53
CSD_code = CEDZEQ | q = 0 | S = 0 | Stoichiometry = C17H27CrO5P3 | MND = 6
Cr        4.66643650535809    1.94179008563523    3.35821535547601
P         6.04992283300850    0.05015301896727    4.23963401251621
P         7.96134115285803   -0.20470775849025    5.24566001328177
P         7.93575824526500    0.11812212589693    3.08459080267150
C         5.10624606163089   -1.54161903135132    4.72808177374029
C         4.08398237380286   -1.84861692618000    3.63727472184932
C         4.40143550972283   -1.13899151448087    6.02533428380898
C         5.96769237733844   -2.76899354882713    4.99660828064869
C         8.38387750935549    1.48195250284016    6.01977834933372
C         9.75286391427597    1.29603870952736    6.67814095186502
C         7.32301573874168    1.74999923306540    7.08579869884676
C         8.44566670992210    2.63158548035263    5.02456725109590
C         8.63549210741965   -1.47063178295530    2.29380929496382
C         9.70731912514730   -0.93221918115426    1.33914642046619
C         7.53846621726666   -2.14917123507039    1.47800659879799
C         9.28569993536855   -2.42691659478333    3.28429506804392
C         4.37917608974166    0.95650981852169    1.80023406671336
C         3.03315739404292    1.42340221627107    4.09994621935874
C         4.84124981770050    3.11363599260468    4.80397099211726
C         6.11610904883942    2.68843974930005    2.44583789956308
C         3.67304328386704    3.27552255053029    2.57878813424375
O         4.16635973228440    0.50803587669212    0.76301540846767
O         1.94023162224449    1.31322273627642    4.44639197727994
O         4.80232369555114    3.96376112126371    5.57823280799023
O         6.83793580127148    3.26084630165240    1.75874768665962
O         3.04543824074908    4.10741570853928    2.08610038653789
H         3.39612053716956   -1.01443399984093    3.50181393400272
H         3.50151642618082   -2.72799356127343    3.90932937787161
H         4.57353382479660   -2.04548804262167    2.68413517040533
H         3.81137054166833   -0.23282495401245    5.88584734380030
H         5.13355893408291   -0.95802196502029    6.81213080924495
H         3.73262565113826   -1.93336185024791    6.35265178083612
H         6.75117591636379   -2.55080327606472    5.72106220066879
H         6.41954346729739   -3.14760745139098    4.08400319554021
H         5.34172371809108   -3.56017132205532    5.40855323154897
H         9.73189856716905    0.46912220375386    7.38686824316444
H        10.04169007863056    2.19929587520627    7.21262490657158
H        10.51252005680742    1.08404044370413    5.92700755806256
H         7.30172194469312    0.94241391800491    7.81709435745500
H         6.33386585103370    1.83424511801938    6.63261245888943
H         7.53910051536942    2.67941653681749    7.60979802365638
H         9.19488842040026    2.44335891905018    4.25624572583545
H         8.71557045924781    3.55031836659418    5.54411860615826
H         7.47918856722942    2.78492246167473    4.54207689967558
H         9.27126968157305   -0.23975734355234    0.62092723734973
H        10.16854684937425   -1.75181191605144    0.79049988421284
H        10.48621727953845   -0.40728940141435    1.89065794846523
H         6.77848856521011   -2.58538666709362    2.12179237210629
H         7.96251118961751   -2.94313951498631    0.86430144826055
H         7.05508337724941   -1.42875813907492    0.81833192351192
H         8.57014526614989   -2.81320427223131    4.00450073704864
H        10.08062448447551   -1.92223147009457    3.83161995887552
H         9.72115878667024   -3.26941435042854    2.74778721045947

