36
CSD_code = CEFBEX | q = 0 | S = 0 | Stoichiometry = C17H15O3Re | MND = 8
Re        2.40385595591346    5.64335521921748    0.07652092016361
O         2.04684712760006    3.28524295555982   -1.88862071699951
O         5.41901562438062    6.01779257455306   -0.48863296678257
O         2.80903396206586    3.89440913636760    2.58741985210069
C         1.88054245420516    7.80672020603355    0.93028348063688
C         0.75577382744301    6.94213887909482    1.04604043213821
H         0.24497381207890    6.70192876843892    1.96865906109149
C         0.32290288185486    6.53820429436680   -0.24562593919563
H        -0.61073917502462    6.03715891020662   -0.46067044448396
C         1.08496961578178    7.29581850964229   -1.20761147742754
C         2.04214526471278    8.09462613938075   -0.47919407698538
C         2.83633902301418    9.02366493390625   -1.17277895751163
H         3.53973203301636    9.64514499800292   -0.63802634925467
C         2.68229689260477    9.14518079514778   -2.53025845566187
H         3.27714370826008    9.86536100293903   -3.07211076114697
C         1.75273877326139    8.36471536169824   -3.23865523718024
H         1.65991750674836    8.50404645197800   -4.30538848603296
C         0.95508974304501    7.45101942758293   -2.59991909020472
H         0.22513523585739    6.86624061737127   -3.14289869023331
C         2.51763569254117    8.58439583585224    2.04427623092757
H         2.27452596188332    9.64697119781357    1.90217909767167
C         4.04405192450341    8.43973315316629    2.13552304121740
H         4.30173403471600    7.37933871959767    2.04486055352295
H         4.57177205537259    8.98263556072732    1.35311113345681
C         4.39738149798409    8.95518558980644    3.53478793307996
H         5.21379211127759    8.37790676197754    3.96580605759494
H         4.71837562013030    9.99620258978380    3.48834089335577
C         3.10777995190060    8.82867927992974    4.36853230762811
H         2.75080407633488    9.81604132012142    4.66440162259185
H         3.26560488126797    8.24841079631098    5.27627002179679
C         2.08537416780629    8.15723076399201    3.44880843952138
H         1.06314526419185    8.45224156765551    3.68602542327545
H         2.16661539635936    7.07069492093165    3.53463927514087
C         2.21349130586564    4.13784520575631   -1.14512667079907
C         4.31787279439729    5.81852776654551   -0.24530811675305
C         2.70172899664823    4.51528978854345    1.62744065974059

