46
CSD_code = CEFBAS | q = 0 | S = 0 | Stoichiometry = C19H16Cl4MoN2O4 | MND = 6
C         6.61085001338361   -1.64747592158666   16.02839809750282
C         7.42477641512244   -0.80432445857244   15.23157374703458
C         7.08873785034774   -0.47903911771823   13.93669231002714
H         7.71407796905244    0.18863170109461   13.36606968403012
C         5.92928320436203   -1.01787131921763   13.37870891525616
C         5.11808241693967   -1.86140880156854   14.10376419439041
H         4.22166262219659   -2.26492861821540   13.65793975412544
C         5.43099783761989   -2.17183044579519   15.43460102526128
C         4.60354332564638   -3.08229964355750   16.17915582477896
H         3.96198435670600   -3.73935440970600   15.57660703390924
C         3.86446421245801   -4.27030397251687   18.05616258175606
H         4.60695295813640   -4.91399558785244   18.54157356505503
H         3.33439663264236   -4.85277836391236   17.28711253469966
C         2.84374406741893   -3.81830384303303   19.11959067875772
C         3.55252587283800   -3.14651178818840   20.31967422660097
H         2.81454015508000   -2.96947410721434   21.11556286044236
H         4.34668797182883   -3.80596103624662   20.68741632118842
C         3.64685846044092   -0.79500209093435   20.30131665225588
H         2.87328700203886   -0.81027554301225   21.07754291913518
C         3.97261834108643    0.47036692124692   19.73696243631549
C         3.61435017763961    1.66746432709338   20.38274635194106
H         3.18517196578569    1.62773986499049   21.37210609621121
C         3.84683267102064    2.87613732591152   19.77625842359485
C         4.40895100719052    2.94462879860123   18.49576342029713
H         4.59022298000239    3.90074288441385   18.03058378484235
C         4.72434601620580    1.78328478545800   17.83824869529810
C         4.55000693215574    0.50166855117415   18.43016708764558
C         2.11735936187420   -5.06288903579712   19.63904766295078
H         1.61992751399736   -5.58384767252933   18.82482447169289
H         1.36424356534374   -4.78544549570107   20.37218696974945
H         2.81842551647096   -5.74802236448374   20.10808056618324
C         1.83528713127425   -2.85168962791597   18.49018264339335
H         1.28283349593356   -3.35112148905998   17.69719419391971
H         2.33990861321272   -1.98460046697753   18.06204195125668
H         1.12061349267849   -2.50539811298423   19.23389251189740
Cl        8.82567833194169   -0.15528119502219   15.98145948553582
Cl        5.51687045496938   -0.61577675821088   11.75405910448807
Cl        5.41998427062801    1.81535463202378   16.26534497014528
Cl        3.43641504720802    4.34359599860762   20.58224442707354
Mo        5.91747030454474   -1.98865217100351   18.81269559671278
N         4.60800391395299   -3.19533972135767   17.45133854877441
N         4.16217899768570   -1.90987698991969   19.90454747203484
O         6.95869069390749   -1.94615670770068   17.23818947771007
O         4.83160306589048   -0.56420202194729   17.77944087746711
O         6.35492462185824   -3.45087553518527   19.44077858713373
O         6.58192817128171   -0.79750135597097   19.73805125952758

