37
CSD_code = CEFBAT | q = 0 | S = 0 | Stoichiometry = C19H13O4Re | MND = 8
Re       21.25934573999233    3.67827136937917    5.10362342299196
C        22.52941995848472    2.75862998543335    3.95971427765933
O        16.70228038851834    5.47681023138439   -0.45327891290928
C        20.76252854635745    5.83097434083131    6.26087842457024
C        19.17643382122682    5.41609838548039    2.88526892570119
C        17.55898160353545    5.40793996201368    0.60184399583973
C        21.43490401476731    5.71765639121265    4.05683975822469
H        22.01303638431962    5.91020582228571    3.16207638201108
O        22.36841751532687    2.42655685391704    7.70159213529446
C        20.03910594892182    5.43901042785769    4.07222530902331
C        18.68693941289703    4.59624502818106    0.66518775290504
H        18.95449428427563    3.94714284167057   -0.15344901089439
C        19.48083893182288    4.60574172561501    1.79662784450561
H        20.34294223166939    3.95118802086415    1.84545672962527
C        18.04774695456986    6.23283340425022    2.81204539259507
H        17.80592814801965    6.89019640989572    3.63495996169065
C        21.97206707598466    2.84036856975145    6.71154478833308
C        17.25196472733964    6.22851046111345    1.68877026281720
H        16.37887524482016    6.85860723917755    1.62477288312647
C        19.88232721086661    2.32677192453441    4.82641729261540
C        21.91247051536046    5.85778681574347    5.39045994125404
H        22.87328203745196    6.27212635619856    5.66135033374417
O        19.01081594851743    1.60708039021510    4.65429445484185
C        19.60276465981822    5.54928484814234    5.45067833068453
O        23.28657809627488    2.28911615950576    3.23523965013400
C        18.33038245508056    5.50779077493266    6.04744396537768
H        17.45859167247820    5.27864230026759    5.45071350168456
C        20.61051557022793    6.09436590695925    7.63339329896893
H        21.47631776450858    6.32625374961029    8.23815085351151
C        19.35054824641876    6.06617189973507    8.17404758845967
H        19.21390001842724    6.28052654005712    9.22350924335121
C        18.22305611681816    5.76718680833488    7.39022403268053
H        17.25117111996256    5.75086166927460    7.86057852874307
C        16.94982393827594    4.66534075897405   -1.57539740108056
H        17.90973824831038    4.90712150134840   -2.04333423227669
H        16.14471652034998    4.87928365367573   -2.27650806473414
H        16.92934892800297    3.60210047217662   -1.31516164107068

