107
CSD_code = CEFCAS | q = 0 | S = 0 | Stoichiometry = C54H48ClOsP3 | MND = 7
Os       10.12899249399017   10.75767640472482   13.71973152850090
H         9.15470797335566   11.30597773468437   14.79952091464696
H         8.75799454934252   11.27702366654211   13.14278258104892
H        10.02933175485817   10.64090643296589   12.14935081965424
Cl       11.31907677376705   10.46799385934754   15.79485719603202
P        11.00579541791233   12.95760840924610   13.81413141579935
P         9.04840000376354    8.68926464871845   14.23082975320874
P        12.16016063075900    9.79955090617750   12.81840930985556
C        10.47026748736703   13.84395141195028   15.33311098647523
C         9.09012144400962   13.96383561134353   15.48895511148318
H         8.43518366439319   13.52205741966093   14.74804080488657
C         8.56009168821071   14.62850761123140   16.57652865091608
H         7.48839430013318   14.70693752364049   16.68895196713984
C         9.40278901364345   15.19153981503196   17.52211891334641
H         8.99189689954299   15.70543354034942   18.37895499589226
C        10.77287665563157   15.09684050728265   17.36039826651403
H        11.43614452105725   15.54259874709364   18.08805892606187
C        11.30892816183192   14.43238537177095   16.26909270415626
H        12.38214313979413   14.38020661264483   16.16059352877549
C        12.80928760940845   13.25975733377762   13.81080577151856
C        13.45250745188303   13.91899257578597   12.76663789882064
H        12.88825788649618   14.27546796561072   11.91744527986239
C        14.81745724367740   14.13488520241310   12.81505489728634
H        15.30544376960750   14.64442452556859   11.99632225390271
C        15.55514831807514   13.71255010769548   13.90890401068978
H        16.61818501527426   13.90141717883566   13.95067571430915
C        14.92578613192162   13.03951199088910   14.94215107725124
H        15.49402066329512   12.69474705628783   15.79392366371573
C        13.56568751594645   12.79479794879325   14.88531038727996
H        13.08776692229502   12.23148181674818   15.67456957541786
C        10.41918136574628   14.26359747985595   12.66506101250895
C         9.54241370869235   13.97212886301165   11.62916976229752
H         9.21548293754031   12.95083996461367   11.48168174469493
C         9.08036630915614   14.98061406193396   10.80007399573879
H         8.39942860455097   14.74454394363525    9.99523104469433
C         9.48636389780836   16.28755936675277   11.00430149632008
H         9.12642017929131   17.07481726113048   10.35817087430526
C        10.35028164653300   16.58743812725457   12.04672110255378
H        10.66149223910678   17.60837187278268   12.21466850289128
C        10.81119540471319   15.58366490304249   12.87576630420279
H        11.48006555054367   15.81851848607736   13.69296092676093
C        10.02568036190089    7.36714589907609   15.03711058219109
C        10.26913785278595    7.39412169013784   16.40747300353229
H         9.82010452421303    8.15790482957988   17.02275722278286
C        11.09464942743258    6.44812005241254   16.98874185602349
H        11.27872504315982    6.48434755552329   18.05269279223999
C        11.68627910597040    5.46422880594940   16.21443103723461
H        12.33217592283526    4.72793091764136   16.67046347189101
C        11.44533951529626    5.42857211431300   14.85080301887867
H        11.90008080398733    4.66495134761763   14.23611522199947
C        10.62717631110183    6.37594133066426   14.26351082086764
H        10.44652055513906    6.33919900641623   13.19949404900700
C         8.15383249041440    7.74674340199454   12.93829076097854
C         7.85381359702759    6.39193229962685   13.06149514522302
H         8.15554482428159    5.84732006632185   13.94519164816126
C         7.15747092412372    5.73871732004334   12.06128812987080
H         6.93640998256510    4.68598764277138   12.16439087215067
C         6.73674813016941    6.42873956765488   10.93593105248728
H         6.19700884513739    5.91240173355092   10.15545450768464
C         6.99861849111334    7.78355152211468   10.82355438147369
H         6.65557755671368    8.33136038206068    9.95770053639782
C         7.70018792768127    8.43773620786291   11.82048724540935
H         7.90100442924317    9.49843862270462   11.74437897398776
C         7.69985116518515    8.89344957028345   15.46597425661180
C         6.45328259933957    8.29513170761889   15.31506465668299
H         6.23254148323180    7.69966791460908   14.44194926719235
C         5.47371321034926    8.46520501391203   16.27830447495120
H         4.50927259935737    7.99657253730787   16.14368195647486
C         5.72201430543377    9.23031540955992   17.40405672233931
H         4.95468502237891    9.35921064400440   18.15347774237813
C         6.95692719950556    9.83763193593651   17.55787592354407
H         7.15894393340855   10.44553720390622   18.42797045312827
C         7.93570078515737    9.67625541372187   16.59536340965253
H         8.88450511574287   10.17880721979811   16.71920664576792
C        12.89973603555058   10.60830335304322   11.34398291147049
C        12.36214617612947   11.76956825847533   10.81290024868838
H        11.50091752258056   12.22162432766834   11.28788033227345
C        12.90902212471663   12.34821568562864    9.68032666648956
H        12.47614084072498   13.25377330424682    9.27930363348311
C        14.00325046370526   11.76662729516897    9.06675905389627
H        14.43489433872735   12.21569817076831    8.18427784133478
C        14.54129463920882   10.59798563765058    9.58442597138081
H        15.39131426973113   10.13503477243881    9.10412582313140
C        13.99181795764778   10.01750688445503   10.71022377103731
H        14.41140070755289    9.10077316736375   11.10161716589679
C        13.64207135655133    9.51927156414317   13.84449337107476
C        14.82311783378947   10.23168013460085   13.68096154889336
H        14.90808716888430   10.97860543914076   12.90402349569234
C        15.90079066044807    9.98228897054307   14.51332901233674
H        16.82032444119136   10.53167305716677   14.36972051744693
C        15.80176329763291    9.04470633159966   15.52646201237173
H        16.64441735462308    8.85958120733429   16.17701658765966
C        14.61746976595687    8.34832637148474   15.70868433244158
H        14.52682218485979    7.62235280326713   16.50366571400057
C        13.54337553647694    8.58423869433429   14.87377517990459
H        12.61913997826614    8.04316859859313   15.01736449293252
C        11.99158708660507    8.16297378535117   11.99932164618565
C        12.89286967013376    7.11609152368381   12.16143646981624
H        13.72885593933490    7.21077473927620   12.83971343924256
C        12.71761403627436    5.93369667760170   11.46359030387050
H        13.42433879101383    5.12723671929429   11.59883453163242
C        11.64684489566583    5.77889723096923   10.59965576785324
H        11.50958757549191    4.84956958688570   10.06654051535348
C        10.75627035601195    6.82449098967836   10.41841873433661
H         9.91952804159855    6.71745958895847    9.74338951486022
C        10.93500753474457    8.00933647736493   11.10646303484697
H        10.24382043184835    8.82716749795582   10.95730884740625

