23
CSD_code = CEFFOI | q = 0 | S = 0 | Stoichiometry = C10H8Cl2N2Zn | MND = 4
Zn        1.65979984882226    1.43423361464475    1.78162036528268
Cl        1.19432448025627    1.85134545989806   -0.32500945438666
Cl        0.71848729473855    1.73101524801408    3.73711268301611
N         3.76266802272625    1.87709094101187    1.79669290264274
N         2.53311405620084   -0.51700023806230    1.95263138940311
C         4.28526914578101    3.06365650335116    1.53857440149127
C         5.60790678938101    3.23202768990502    1.15906256224710
C         6.40279381508792    2.10474641530962    1.02997738239914
C         5.85505473074930    0.86291579918784    1.30373837516353
C         4.58565767677005   -1.63670804909149    2.37514760623879
C         3.89969046256126   -2.80591487013500    2.65724008517847
C         2.51688811762741   -2.81053794338030    2.57178225361439
C         1.87628621537133   -1.63226294727799    2.22086304782720
C         4.52053307548868    0.78292163953277    1.69794532601305
C         3.86589912414991   -0.49899664550030    2.01340452370453
H         3.61688846028021    3.90735333617546    1.63903433786848
H         5.99613490671607    4.21744946534821    0.95930738139477
H         7.43255473058565    2.18841672805113    0.71663896764958
H         6.44913691511739   -0.02883640728486    1.18673212175309
H         5.65976639879759   -1.60539293917048    2.45962075760870
H         4.43796490859334   -3.69678916853969    2.94403390389352
H         1.94528634517126   -3.69994305814463    2.78126132914621
H         0.79889447902639   -1.57499057384292    2.15378775085036

