79
CSD_code = CEFGEA | q = 0 | S = 0 | Stoichiometry = C42H32O2P2Ru | MND = 6
Ru        3.40604410740495    6.85932122345086   10.67778304596443
P         2.56192582101341    8.70447212811724    9.55652572828196
O         1.15333576396634    5.05499605389014    9.84545465337714
C         2.02041608075728    5.74141487808096   10.15199284400319
P         4.40135294003693    5.24638621222976   12.01212275496807
O         5.05816449331325    6.04602012989494    8.30975247278759
C         4.46760449965660    6.39355486066940    9.23140940086394
C         4.82334332439331    8.14152593796070   11.39677605574843
C         6.55608015821606    9.78569729823699   12.36980928886310
C         7.37851116339215   10.54967199916264   12.80940933672167
H         8.09106052936854   11.21259187311770   13.19862137024578
C         0.88813281895483    8.41801097866277    8.90202787190435
C        -0.23770109032715    9.03837670557418    9.42930679738688
H        -0.12860427727571    9.77380212120540   10.21439891506880
C        -1.49457319741111    8.70843948551852    8.95115987838649
H        -2.36793698509304    9.19255789264048    9.36344464404031
C        -1.63539510207665    7.75905043665324    7.95359649512664
H        -2.61782601331510    7.50374821722293    7.58475723155617
C        -0.51582254210418    7.12690985686898    7.43365492521178
H        -0.62491841281037    6.37858974826203    6.66219257507386
C         0.73935073770044    7.44843769116928    7.91061878215942
H         1.62021937070123    6.95095689918501    7.51841464112163
C         3.49885512166856    9.22345121907086    8.07388801824116
C         2.92006541501965    9.49094900929532    6.83783604341688
H         1.85364746541795    9.37990061118377    6.69738238899817
C         3.71173780232207    9.89729786208195    5.77744493486821
H         3.25634328476399   10.09608112377596    4.81782728103737
C         5.07784490578093   10.05004487487796    5.94192724559677
H         5.69026863399713   10.36362152661811    5.10936334598530
C         5.65640274111894    9.80242008606943    7.17658408933591
H         6.72064438210220    9.92729297567439    7.31218860941887
C         4.87202699900579    9.39193027323119    8.23744915014952
H         5.31670229269175    9.19896596429265    9.20722001493538
C         2.38914884586010   10.32529316788034   10.37587070658808
C         2.08925610379072   11.44886122776501    9.60773916487956
H         1.96934840731896   11.35363665391909    8.53709366008478
C         1.94473978559776   12.68152252330775   10.21459854319610
H         1.71193060457175   13.55051507061850    9.61631361285462
C         2.10114274746236   12.80469414124236   11.58683173307840
H         1.99312457220052   13.77144030807730   12.05641232172703
C         2.39607531694668   11.68979165071436   12.35234649069114
H         2.51873367498407   11.78388833186464   13.42126337124692
C         2.53794058125944   10.45156218346910   11.75043896359138
H         2.77028665516773    9.57637743294049   12.33968812536783
C         3.37134353837456    3.75388897663523   12.16086401531971
C         2.69743652127857    3.42532398965198   13.33062197117772
H         2.83611256299186    4.02732784544923   14.21809511936692
C         1.84711679341055    2.33284442759425   13.35298731515633
H         1.32437410036022    2.08012735731244   14.26401644395602
C         1.66046429805667    1.56960560084928   12.21324404546189
H         0.99514344351830    0.71915400760144   12.23486718311599
C         2.31865907822058    1.90279544479403   11.03890115807392
H         2.16520887626531    1.31485224414911   10.14569710896327
C         3.16338897814911    2.99455215046412   11.00970172475544
H         3.67198712378561    3.27159757419326   10.09217983741650
C         5.99804615218090    4.58569069239501   11.41226860326927
C         6.30784852742773    3.23110366805918   11.35187275673019
H         5.57737380398405    2.48891011454492   11.64332561574354
C         7.55533317093869    2.82654613747648   10.90908251836449
H         7.78665211292568    1.77223922203377   10.85765285939434
C         8.50316609552758    3.76364609803424   10.53466965874173
H         9.47345562466051    3.44100319121597   10.18680896328982
C         8.20492973696555    5.11478478757451   10.60930717065611
H         8.94306625093098    5.85016352456761   10.32479447423178
C         6.95974576356631    5.52458280910872   11.04638342227445
H         6.71999474496673    6.57992354812069   11.11055560855218
C         4.86547030249744    5.57939833124871   13.74475158115899
C         4.51239514042208    6.76871586547347   14.36729358965710
H         3.95738034366817    7.51150814788045   13.81282361478310
C         4.87835775470538    6.99736431922880   15.68262720756882
H         4.60630996446241    7.92657401681216   16.16119521825489
C         5.59305757850092    6.04010557241158   16.38161769427332
H         5.87992681986544    6.21954551491166   17.40743518489032
C         5.94332225708867    4.84858673960483   15.76456179329876
H         6.49976873225463    4.09993535151919   16.30973662301540
C         5.58515988082781    4.61687440977303   14.45078771262268
H         5.86066185174356    3.68891147411152   13.96834469248522
C         5.63361595774850    8.92018924868122   11.86670727725957
H         2.49419559017907    7.23695675054619   11.89638271282226

