25
CSD_code = CEFHAW | q = 0 | S = 0 | Stoichiometry = C8H10ClNO3PtS | MND = 4
Pt        5.14333568841451    5.77865060492845    1.73062234230117
Cl        4.66940394118838    7.91256041514289    2.42607405440165
S         3.57938269132610    6.15469995797473    0.19674938402870
O         6.60018889694912    5.45353631161856    3.17546004981112
O         8.00906867921381    4.01421585842119    3.92972898151174
O         3.26614085984947    5.10880784015738   -0.76113268613989
N         7.14677092466540    4.31097711464473    3.13410476149345
C         5.69971774633246    3.90903052313793    1.28454081091125
C         5.26783666496255    3.02667286677470    0.29849441216421
C         5.81284694598827    1.75878047051095    0.18532131025525
C         6.81288252368813    1.31881623607912    1.05279514416645
C         7.27105091402812    2.15507612341368    2.04243663291459
C         6.71015544279765    3.43265781226045    2.14387672017401
C         2.01624986230857    6.64524900094189    0.97451592893107
C         3.94664465074939    7.65251825053325   -0.75746596593126
H         4.49484723138350    3.34190113135029   -0.38647040563373
H         5.45786731813700    1.09548539426138   -0.58956887719495
H         7.22344358075484    0.32684807038378    0.94582413180504
H         8.04248604621504    1.86098529715004    2.73782940632869
H         1.30214649958734    6.86821878650715    0.18991565813712
H         2.21385050183942    7.50622823995857    1.60295454133936
H         1.66535402420294    5.80913604253465    1.57120275191863
H         4.07639246543414    8.46922703153115   -0.05644721108667
H         3.12409980913103    7.82900433560424   -1.44119235448622
H         4.86203609084522    7.47611628417727   -1.31326952212404

