46
CSD_code = CEFHAY | q = 0 | S = 0 | Stoichiometry = C19H16Br4MoN2O4 | MND = 6
Mo        8.92357964335878    1.98758649695948    2.88509015512579
Br        5.80994993407700    0.26896298159130    5.69196239011628
Br        9.29461627675218    0.77371106517209   10.15415354665466
Br       11.27079674067636   -4.47533153048848    0.93809801542472
Br        9.44125653034895   -1.77270415929202    5.58572166481598
O         7.88557054665910    1.94592690938286    4.45731793429527
O        10.05091676682907    0.56948246584966    3.92850788360905
O         8.27298565106655    0.75780659338106    2.00342043190177
O         8.46439963876641    3.43092239986583    2.23443055414345
N        10.22086033388516    3.21533592395411    4.22714441993448
N        10.66762062860762    1.92047542458309    1.77721896261873
C         8.21585536627954    1.70745520105004    5.68361011180008
C         7.36934353532452    0.93694486909988    6.51080421282851
C         7.67927249228602    0.64668833915337    7.81805278548415
H         7.02505237247945    0.02582052548241    8.40988591835292
C         8.85725430733788    1.16232843190050    8.35376995199075
C         9.69922956187683    1.95365090181817    7.60649427530731
H        10.60426354007481    2.34757329910417    8.04472622126121
C         9.40453861044755    2.22857917851087    6.26431144306378
C        10.23992515627012    3.11388900714820    5.50097022873137
H        10.89043561930949    3.77373538022748    6.09005539081268
C        10.95429112731381    4.29145294277030    3.60941277053214
H        11.48412871134464    4.88137773523049    4.37252406178190
H        10.20347945405791    4.92750594945367    3.12640239970389
C        11.97256739162460    3.84451521879457    2.54233132367450
C        12.68205340985041    5.09403302233851    2.01158407152133
H        13.18237697374366    5.62240250128061    2.81919162317563
H        11.97030742366438    5.77098093527111    1.54673775185211
H        13.43079555133001    4.82100874599773    1.27235651021842
C        12.99603283408141    2.89211056456300    3.16975091841955
H        12.50504347685654    2.02089118330565    3.60615078172313
H        13.54817029564387    3.40110650493331    3.95690653267751
H        13.71008909601147    2.55049430158209    2.42316294677848
C        11.26286239566981    3.15994432967840    1.35086338024990
H        10.45954543655359    3.80930858424147    0.98456023730952
H        11.99617402945782    2.98455695680140    0.55049637148468
C        11.16925414730435    0.80862400922392    1.36117626147178
H        11.92665977503036    0.82103138416957    0.56924030804472
C        10.83787688496654   -0.45573879001026    1.92675563944716
C        11.14003492581726   -1.65487336380199    1.26085452540367
H        11.54106015182747   -1.61626555362743    0.25902259465085
C        10.88896201418642   -2.86344823864865    1.86135483335824
C        10.37196438728249   -2.93565520844355    3.15786031705802
H        10.18266287051621   -3.89163217482556    3.62279942585051
C        10.11665674763049   -1.76853248311176    3.82714484243297
C        10.29712723552089   -0.48783876162081    3.24931307290639

