61
CSD_code = CEFJII | q = 0 | S = 0 | Stoichiometry = C23H29CdN3OS4 | MND = 5
Cd        7.56225581427931    2.05042149444063    8.51393304876759
S         9.31594658764361    0.32204152122049    7.61807742953122
S         7.66347186726471    2.08290717384657    5.89561311000814
S         7.44272903341422    2.02355302248561   11.13392596288541
S         5.22201616976469    2.82098571677021    9.33567850354369
O         9.95238404523286    5.95652543914287    8.14716015171935
N         9.56508075282698    0.50806686880726    4.99985870495146
N         5.08536885232047    2.87207650626771   11.95753372834803
N         8.64617377988833    4.21270557513236    8.59723214715483
C         9.14837929357689    0.88974647279308    3.69452431104030
C         9.98344094494730    1.67642992174376    2.91323680402619
H        10.92454266378518    2.02180270350258    3.31557944924384
C         9.59644917199503    2.02639808456204    1.63194934991959
H        10.24434275842843    2.64402709770127    1.02788068907783
C         8.38189869648006    1.59242725347252    1.12890561273729
H         8.08166544653458    1.86890765111894    0.12937276187745
C         7.55021657389112    0.80754255034811    1.91023342235785
H         6.60170667698449    0.46910667950456    1.52129001205781
C         7.93054221944269    0.45238577849870    3.19109124144090
H         7.28549082156322   -0.15183443148774    3.81067105968358
C         8.89150205291280    0.91815514062622    6.08052878372951
C        10.63883000170057   -0.46465247043590    5.07890231610990
H        11.16622704683658   -0.31568621261904    6.02413895091191
H        11.32084066768897   -0.27450699742932    4.24674526372557
C        10.10185683371879   -1.89030653650889    5.00398669830315
H         9.55250596346650   -2.04066727275400    4.07689647476868
H         9.43841108467771   -2.07870937436906    5.84407687690579
H        10.92456180258222   -2.59839999470182    5.04490604682669
C         3.81690186731858    3.49225766748657   11.79279272249845
C         3.73039615748291    4.78759642325748   11.29943817863809
H         4.63164106582076    5.30735119611025   11.01036327172199
C         2.49396461177204    5.39190848243413   11.16852684841050
H         2.42869012592410    6.39776471204844   10.78138138498790
C         1.34408273674850    4.71155998542514   11.53317095843762
H         0.37968791659605    5.18535988098612   11.42801213550810
C         1.43177614688079    3.42117922637107   12.02684997704552
H         0.53666892710621    2.88481592831129   12.30443526551634
C         2.66539921988020    2.80921982821530   12.15901134417856
H         2.73895244322031    1.79737141752097   12.52947266412794
C         5.86336033253223    2.60583942690533   10.90133767663934
C         5.54052326749819    2.67205045653155   13.32054465986779
H         6.20979794812442    1.80858908150323   13.33495151240737
H         4.66388899253342    2.46399254388193   13.93815132172599
C         6.27259952728322    3.90315875618193   13.84540908519610
H         7.15796225095914    4.08895644283637   13.24271744613436
H         6.58062293865053    3.73899615610942   14.87400448591108
H         5.62375134208996    4.77595212777967   13.80641072658920
C         7.82668203753237    5.36663528392827    8.93200369023837
H         7.56925361383491    5.32489813704384    9.99448933234296
H         6.90368357440680    5.34218508386454    8.34601447564914
C         8.73731162574853    6.56457524607385    8.58337702713275
H         8.34381647296040    7.17621750889392    7.76735066850149
H         8.95921193364971    7.20247014136162    9.44220163059036
C         9.77436403465362    4.62828787454150    8.18435398344439
C        10.90135029713549    3.77300404270271    7.72736646073222
H        10.71201942052874    2.74510408638225    8.04592337300975
H        11.82147266848517    4.13375761564161    8.19103469100979
C        11.03110083267926    3.84499349529792    6.20359445894648
H        11.84010645027337    3.19793369833497    5.87478082908458
H        11.24474315060191    4.86373996369755    5.88902719376138
H        10.10667844512737    3.51972872068834    5.73067160836165

