63
CSD_code = CEFJUT | q = 0 | S = 0 | Stoichiometry = C22H31N2O7Rh | MND = 6
Rh       -0.09753500773778    0.46716826679042    5.49982022582831
C        -0.94987242632096   -0.58947869337039    4.14474058875945
C        -1.39955342712539   -1.86437196897301    4.46674344139623
C        -1.96911604681353   -2.64672299033576    3.46457310298108
H        -2.32476947119876   -3.64281029116470    3.68135068762423
C        -2.06601934636099   -2.12367919011148    2.18050568801209
H        -2.51151315096108   -2.72898738939688    1.40491128256101
C        -1.59940414600340   -0.85520183708338    1.85458303252653
H        -1.67796383297321   -0.48428420850057    0.84367399006500
C        -1.02190152185352   -0.07487671480714    2.85330295746108
C        -0.42574633639653    1.24608247401029    2.82943474506436
C         0.28773922452262    3.25368819182495    2.19364466284491
H        -0.40644366755776    4.08291367637744    2.03655438522657
H         1.17250917805137    3.40380065413359    1.57140771057643
C         0.62623971504001    3.03216016218518    3.68799206234635
H         0.09249066173619    3.74801436495681    4.32551914628503
C         2.12073984312059    3.09567774439671    4.05825890238115
H         2.17152562103141    2.81868978951994    5.11645842178921
C         2.95682770740885    2.09222099578967    3.26869376935096
H         2.95565672981727    2.31135346546718    2.20253123246773
H         2.57547759794669    1.08554869065100    3.42490458731534
H         3.98662034218565    2.12538402812805    3.61577373928036
C         2.64723838359074    4.51842639131070    3.89341467640106
H         3.68047679568384    4.57173368562631    4.22602544282982
H         2.06190938138048    5.21670729057829    4.48668418005328
H         2.60846542442902    4.83387361092581    2.85248293647588
C        -1.12816695772583   -2.13661341529655    5.86509090406496
C        -0.83459835881835   -3.19280468148483    7.79471577176913
H         0.02769691444498   -3.86004844143442    7.88419581902323
H        -1.61185427341143   -3.51621021160311    8.48814724504628
C        -0.44657504249840   -1.70488393140061    7.95330634551061
H         0.60347761091758   -1.59026653935834    8.24293850680355
C        -1.31526938063916   -0.91009351154813    8.94769018640877
H        -1.02764634983647    0.14054318999862    8.84290786289413
C        -2.80504340116483   -1.01226942010534    8.62768416762609
H        -2.99139771110196   -0.71681223749776    7.59670234737351
H        -3.36042057837130   -0.34153766943393    9.27866665619891
H        -3.18721292496396   -2.02033557113305    8.77834435723814
C        -1.01898200478886   -1.35252912059856   10.37736862888477
H        -1.58080185233835   -0.73965395855418   11.07734742003598
H         0.03969320665054   -1.24287027792531   10.59909802946576
H        -1.29725899198020   -2.39296130641834   10.53505948453235
C        -2.16003839138786    1.99485701589748    6.97534046739858
C        -3.57091150408000    2.56953963837988    7.04407300524220
H        -4.15054673409414    1.98601426000848    7.75555231831229
H        -4.04164582007412    2.52514481166417    6.06689598375496
H        -3.52362474512446    3.59497240945541    7.40054644625535
C         2.45289122334862   -0.82333241817722    5.88454784532365
C         3.71011100040766   -1.51867679832053    5.37859669984375
H         4.47957314118331   -0.76397702985624    5.22895979818936
H         3.51026613706425   -2.01275622680590    4.43255006092405
H         4.05981628398473   -2.23073396474770    6.12046220469709
N         0.08246180194638    1.70983889693780    3.92719656075469
N        -0.60531021432146   -1.20340526035643    6.59655572682276
O        -0.35457333764830    2.04688146017356    1.76866700601483
O        -1.34690214762234   -3.30464994652768    6.46319658310586
O        -1.89462057181234    1.38328872882696    5.89478556327411
O        -1.39504987112048    2.13973686316035    7.93182483530477
O         1.64416024603752   -0.46499199204173    4.96893200152228
O         2.28497174411693   -0.63451096054501    7.08943046084744
O         1.05420380644727    1.78673692748513    7.01951549054193
H         1.55518799478489    1.06458001857795    7.44373702106759
H         0.27216182897416    1.99146047169078    7.58918459001378

