51
CSD_code = CEFJEC | q = 0 | S = 0 | Stoichiometry = C14H20B10Cl4P2Pd | MND = 4
Pd       -0.88667937314167    1.48081393731504    2.04630204219758
Cl       -1.07080896066465    2.04454900749536   -0.15162331032650
Cl       -3.09005017786378    1.07674772372857    2.45069620147596
Cl       -1.57463844209023    1.36947360772027    5.65171543540171
Cl        2.38486015041562    1.40688915369587    0.38366188591552
P        -0.55490537521011    0.74043226984761    4.10444881354541
P         1.23887043880290    2.05424702074166    1.83192803008239
C         1.31295716310355    3.86493728630320    1.68336515234268
C         0.15834396808045    4.56489736585796    2.02917596503905
C         0.13218679178576    5.94333546427006    1.92812756986189
C         1.25215541795900    6.62430172665970    1.47682131870387
C         2.39517241314909    5.92831937149286    1.11818260611786
C         2.42987880615830    4.54887875535310    1.21765521736381
C        -0.82509728953016   -1.05786238305239    4.09447302535719
C        -1.01958148116966   -1.80814444348614    5.24836043591379
C        -1.23911715608218   -3.17050248556007    5.14981639674970
C        -1.26933867612883   -3.78346631025398    3.90768364648512
C        -1.08957471933811   -3.03510331954195    2.75473556253850
C        -0.87076652235266   -1.67308804428737    2.84462924850093
C         2.14748375783488    1.66614364947463    3.41138829481003
C         1.23970824459986    0.95316468651115    4.55740115288769
B         1.71926618072420    2.57561809759849    4.79631955776047
B         3.78543933077525   -0.11099165869078    4.75466330964434
B         3.40282847731062    0.77455344931261    6.26623269581601
B         4.39245253702471    1.56153210477873    5.01761489251815
B         1.75475077999931    1.40314309866785    6.12307683464492
B         3.12145071616984    2.50422182568721    5.86111189596358
B         2.15172676207049   -0.18294174127973    5.44720975569260
B         2.37498110120231   -0.00178338696542    3.70419889933338
B         3.75190309322305    1.08014531563917    3.43962491179354
B         3.34318390057332    2.66692069726986    4.10681326053514
H        -0.73949008648323    4.02111063577038    2.35437911291866
H        -0.76361037560504    6.48586511026558    2.18900506068433
H         1.22859980564005    7.70005878555118    1.39149968900000
H         3.26054355046573    6.46051734763171    0.75323841856022
H         3.31478704335973    4.00259232261107    0.92456261550814
H        -1.01094602821482   -1.32532071964003    6.21489235131493
H        -1.39402842883875   -3.75382149133664    6.04482398477534
H        -1.44741066829514   -4.84571947194611    3.83646675864285
H        -1.13231763628052   -3.51145530586383    1.78721277107277
H        -0.76182949542765   -1.07327695389036    1.93033092450150
H         0.88084626468607    3.38995321350395    4.65091307863107
H         4.49410604089196   -1.04508826044159    4.73022972101354
H         3.83968584147209    0.44671630615726    7.30437512024246
H         5.53380751952673    1.78785989321344    5.16634804481327
H         0.94796469262097    1.48511684243062    6.96834715265385
H         3.36872394504413    3.37690536230537    6.60449905916818
H         1.60206961413818   -1.14130279210270    5.84194275810289
H         1.93920427463294   -0.73438059552151    2.89150712554241
H         4.33378151292470    1.01275122061445    2.42522087672676
H         3.64927075628239    3.64093670837020    3.52889467148522

