50
CSD_code = CEFLAD | q = 1 | S = 0 | Stoichiometry = C22H19N6O2Zn(1+) | MND = 5
Zn        4.02908781377356    6.56285780496504   15.37796616566298
O         3.61393814675154    6.48911125456809   17.18959001984241
O         4.55886945033449    6.66624850717693   19.19640131992655
N         4.45546408644466    6.64147438466725   12.96947967177661
N         3.07744843114959    8.19280894519910   14.76890194814479
N         2.17162424712925    9.49744198918791   13.23569244256518
H         1.87420104255355    9.83717010311390   12.33474896741847
N         3.35450169953403    4.83721271215961   14.65223326445760
N         3.16314861945112    3.21504025804191   13.16641421107495
H         3.28872692120912    2.68778410317888   12.31682078639233
N         5.98754979341409    6.66364303303032   15.96678539250484
C         3.28016510275110    7.35495089402271   12.47258271675068
H         2.46375828493864    6.63349835975982   12.35173233305629
H         3.45401170940620    7.83685635917830   11.50066896564121
C         2.85121932952113    8.36126380464440   13.48767846710435
C         1.92900094639998   10.11080790551409   14.44924675463056
C         1.27541954421490   11.28348806124239   14.79493338804872
H         0.83206127619087   11.92542603057117   14.05086109732687
C         1.21750193610485   11.58406868073005   16.14132107209950
H         0.71715265172101   12.48581922425145   16.45749795077095
C         1.78381731691253   10.74800911092217   17.10861890554260
H         1.70130675691551   11.02465266941442   18.14781846185928
C         2.43775904581804    9.58151720120539   16.77125495206674
H         2.85926747241783    8.92350975225918   17.51329258645184
C         2.50992842021837    9.26856587051643   15.41860361299428
C         4.53298332062917    5.25149954446280   12.53812287302794
H         5.56911142003750    4.91083333223453   12.63484342294978
H         4.22888214374953    5.11074989779834   11.49001773860238
C         3.67622083336210    4.43032150449057   13.44671990721060
C         2.46062542035629    2.79666159735303   14.28027052785946
C         1.74119928484169    1.64579423647978   14.56315827994302
H         1.64557182371934    0.84617559962483   13.84622882441282
C         1.15577187689051    1.57576186372336   15.81179873161250
H         0.58796280595501    0.69754090822589   16.07624210697716
C         1.27838729982951    2.61023404144491   16.74501299550705
H         0.80137497679121    2.50158936354747   17.70617392545453
C         1.99084300161935    3.75867143322213   16.47015940371603
H         2.09861998990017    4.56342244390702   17.17967232709517
C         2.58764136214965    3.84086295451940   15.21766215907091
C         4.60296030701732    6.60314016289282   17.98881287385920
C         5.97612844663533    6.66922265295371   17.30089706201286
C         7.13678979005329    6.73070721295930   18.05987772437468
H         7.04370026810092    6.73398790632507   19.13477346131936
C         8.35722803867406    6.78446967781405   17.41135909076101
H         9.28019527245611    6.83134413804680   17.96843620480342
C         8.36725099024732    6.77652553990329   16.02212610426246
H         9.29404082872913    6.81693815551393   15.47244828937108
C         7.16354223794605    6.71686573001254   15.34495316821745
H         7.13839407240461    6.71114540489870   14.26369698012388
H         5.29154414262635    7.14600767812365   12.69569036334092

