100
CSD_code = CEFPUB | q = 0 | S = 0 | Stoichiometry = C37H56Cl2O2S2Zr | MND = 6
Zr        5.74639441947464    1.50372456674066    4.30960928797636
S         5.36047699239037    4.33102219961156    4.19823796487550
C         3.66494532936217    4.56153595380632    4.90574620102930
H         3.72697742414008    4.17547016568406    5.92977781262161
C         2.71286324610473    3.68659702033764    4.09355487108565
H         3.01255582873052    3.68414915825010    3.03858301424182
C         1.23816981486250    4.07265654634160    4.19137319560708
H         0.66016514340899    3.23089700283901    3.80751865180521
H         1.04517996136583    4.91878152153129    3.52901797243669
C         0.77041311554495    4.41372007140700    5.60671086162228
H        -0.28887842795180    4.16449758218911    5.69041170040697
H         1.30919858693215    3.79760677055195    6.32830357227573
C         0.92979653859327    5.89537597876610    5.94400882724998
H         0.37679204786478    6.10811628508895    6.86151572683009
H         0.47471407002965    6.48715134533583    5.14620106828392
C         2.37306264488212    6.34786309021706    6.14528215414389
H         2.37107474334838    7.42643158102291    6.31755891344490
H         2.78270362105760    5.87138029120773    7.03926827478675
C         3.29915505221194    6.04353609452915    4.96722617842298
H         4.22171178461094    6.60978277453497    5.10375165506428
H         2.85424053943090    6.36827825636661    4.02698170282419
S         2.95230247004669    1.95407970089801    4.70814471802065
C         6.43198556065033    4.56412567608259    5.69858779428510
H         7.32425993911030    3.97253741381093    5.45863922705480
H         6.68677236405518    5.62329755485137    5.74690717699337
C         5.78561028990667    4.09982930939343    6.95889297237449
C         5.41624010761311    5.00482739088517    7.94520200539286
H         5.61344103028784    6.05043873214283    7.77089065060118
C         4.82324320485875    4.57146586909691    9.11822957095738
C         4.63775729183235    3.19791980106284    9.28204097163829
H         4.19769146453387    2.85718970986842   10.20304733173256
C         4.98671501317696    2.25563002575531    8.33101089754392
C         5.54050045399271    2.72199064950822    7.11802685567836
C         4.38202762490594    5.52028690328588   10.22268881737079
C         2.87333976779035    5.35644459624925   10.45704221759452
H         2.32103039938047    5.59037064479809    9.54883154352746
H         2.54179645267827    6.03089559199049   11.24353960889785
H         2.62581996761269    4.34133818739393   10.75376370738356
C         4.65282575933573    6.98776355693891    9.87881289834352
H         5.71613746458446    7.16590439156000    9.73805210273195
H         4.31309180196207    7.61939016005663   10.69697369785306
H         4.11774834893952    7.28684879620569    8.98021941057212
C         5.14660810998992    5.18330683079761   11.51024512354433
H         4.93221420324827    4.17274130464242   11.84567591785933
H         4.86657252711936    5.87207701988192   12.30443840838620
H         6.21809634014424    5.26631697515234   11.34217719841273
C         4.80932803202606    0.75757306317496    8.55021436996445
C         4.28367817430916    0.43202702175982    9.95255102969786
H         4.21969940893643   -0.64767040814999   10.06793626501068
H         3.28839961293443    0.84333279025161   10.10660827668430
H         4.95368251434829    0.81087033148523   10.72101940399860
C         6.16656449761819    0.05767263778081    8.37769821701739
H         6.55462733195847    0.19255570356694    7.36701670312491
H         6.05663953654905   -1.00966430135755    8.55652563423366
H         6.89073732020861    0.45748110851573    9.08543092782246
C         3.81148628030493    0.19642666889283    7.52458151569763
H         4.23128439065268    0.22131989496304    6.51496597738300
H         2.88494581263569    0.76929929000939    7.53814937733232
H         3.58270048615207   -0.83974769233946    7.76421442923547
O         5.84438969180755    1.91515845411946    6.11692659884882
C         2.52079807082069    0.92627129638885    3.22668922662154
H         3.11297550367834    0.01465543750972    3.38019992011570
H         1.45700103888439    0.69553407000294    3.29572240164162
C         2.85442329490238    1.57665563394733    1.92692395395492
C         1.86690181352057    1.89998267210237    1.01221420769420
H         0.84001185594084    1.68794993804085    1.27168103669121
C         2.18442923030351    2.46372335981838   -0.21546589315566
C         3.52995951363954    2.67105884861957   -0.50434477542217
H         3.79029548615503    3.08332589559022   -1.46147356913369
C         4.55544370042256    2.37468486014061    0.38059753245476
C         4.20740688454545    1.84901052300377    1.64120562579520
C         1.06585896941491    2.81792368386573   -1.18458907176079
C         1.58076213749039    3.44521897719147   -2.48265970511302
H         2.12594489883021    4.36504484990046   -2.28451287588842
H         0.73741261968446    3.68686540186164   -3.12647706712668
H         2.22561610548109    2.75557376413689   -3.02162496829590
C         0.29102704175779    1.54299997721835   -1.54561007407979
H        -0.50151125872608    1.77303203452645   -2.25455793248243
H        -0.15942169401192    1.09009184102133   -0.66693409866537
H         0.95956441440966    0.81441024762527   -1.99863758726590
C         0.12325365526506    3.82564668780259   -0.51036958955085
H         0.67112575008738    4.72394909580747   -0.23291672724392
H        -0.32675779281763    3.40943295647790    0.38664742261637
H        -0.67618630501430    4.10609111487322   -1.19274946798005
C         6.02659710848143    2.57959480162221    0.03792075864388
C         6.64453097187594    3.60840938253445    0.99890401046256
H         6.04053442474832    4.51441172709907    1.03109729689858
H         7.64549416441400    3.87009460182513    0.66303088156391
H         6.72691321208162    3.20139485249618    2.01004146193629
C         6.76876417186238    1.24041939760283    0.17614461874075
H         6.71952491474391    0.86240840599092    1.19951777648092
H         7.81692331301070    1.37136174706282   -0.08382619513170
H         6.33390779013735    0.49728265476992   -0.49014760336460
C         6.22658596082521    3.08585099247265   -1.39461283757610
H         5.80827533499925    2.39100401455305   -2.11918461323040
H         7.29173112251082    3.17689438998968   -1.59564260288837
H         5.77526103510964    4.06582744173267   -1.53315249354466
O         5.10390552564030    1.59736144834180    2.57826364374509
Cl        5.59521237863316   -0.83049801065718    4.39750001219972
Cl        8.04930011169043    1.72912337372721    3.96512880280913

