100
CSD_code = CEFQAI | q = 0 | S = 0 | Stoichiometry = C37H56Cl2HfO2S2 | MND = 6
Hf       -0.87290270334130    3.83895688908338    4.75012789110699
S         1.89866803381480    3.63346363826780    5.04293559499596
Cl       -0.80206566018890    6.14797586773800    4.83936448697546
S        -0.35859451873829    1.09624108307285    4.63105216309880
Cl       -3.16653430248142    3.60508553002255    4.56350498009570
O        -0.89209657322007    3.50863728203541    6.56086260865827
O        -0.46844002065820    3.78875524198987    2.95267746939016
C         2.74486242581795    3.48052644272966    1.31352148964418
H         3.76604197401145    3.76559151613033    1.52047808663835
C         0.42261635877858    3.47076811909630    2.02352370069324
C        -1.39611062342679    2.51162493032220    0.52939392338250
C         1.07889641363131    2.51108397947191   -0.07417703639060
H         0.80969235124070    2.01206955489773   -0.98611634688326
C         0.06768982132130    2.81924966852181    0.82332158348406
C         2.41878125249120    2.82092162152182    0.13787137631454
C        -0.64024783363336    2.68553346358381    7.56930417310455
C        -0.16662505385072    3.14127739788511    8.81743207302206
C         1.02957919894173    5.21246253946409    8.07578576528618
H         1.95697722756199    4.64264103928909    8.10903324906984
H         1.24736895462354    6.24664781904752    8.33187084891203
H         0.64296074789832    5.19746983275047    7.05635248618630
C        -0.56334467089194    0.40307167121733    8.38937515990908
H        -0.74166843078587   -0.64568934294749    8.20208038997748
C         1.77111012485588    3.81817008880204    2.24058723125920
C        -0.86593261856441    1.30728196424424    7.38437928446319
C        -2.18936000125182    3.82661621069715    0.52826257401178
H        -2.13166625241557    4.31771114226696    1.49763656511852
H        -3.23647692407445    3.62817132847954    0.31178997248109
H        -1.79741323965999    4.50422339708992   -0.22805092052130
C         1.34460978496285    0.98241932813657    5.34977909137506
H         1.27128163291838    1.37002602536450    6.37229806371730
C        -1.35082357010352    5.33173469163554    8.86153417667780
H        -1.71392943760824    5.19377453780030    7.84466478269137
H        -1.24981078723340    6.39945253640401    9.04193957481528
H        -2.08973335288623    4.92812036104679    9.55136550024926
C         1.78565128058894   -0.47888628221570    5.40728603269680
H         2.59089016018623   -0.57900019723839    6.13770366370797
H         0.93990964238985   -1.05424337017249    5.78664508243065
C        -0.06855447849888    0.82840353591704    9.61270992649680
C         4.10712168374959    3.84069942647929   -1.36640307826723
H         4.56456450828531    4.39055900443800   -0.54862157327187
H         3.33020801430602    4.46450996356916   -1.80268936197179
H         4.86763876871261    3.65600087634036   -2.12206173545367
C         0.76409089564257    0.43605572544884   11.98318079733825
H         0.97117989886914   -0.34526156402469   12.71173842739717
H         0.02525783778703    1.10749767394006   12.41364722150344
H         1.68700269717955    0.98380709584704   11.80792393119796
C         4.60510562918001    1.66040009978753   -0.22775057650716
H         5.39311674398256    1.45309319732426   -0.94848366780050
H         4.19412735324169    0.71143792824080    0.11106630759035
H         5.05168359593044    2.16685031243483    0.62326886555390
C         2.98289720022246    1.75143329439724   -2.09999859034485
H         2.24620734829939    2.33889180125931   -2.64210693518874
H         2.54018504777489    0.80159400240153   -1.80901796433403
H         3.80816487237800    1.54352935947152   -2.77804917769222
C         0.48858222290725    4.94740855987628   10.48262634743070
H        -0.21248015764170    4.58031662812163   11.22861140192328
H         0.56708443975058    6.02580157505339   10.60223164255011
H         1.47090622083299    4.51821919468751   10.66795836559769
C         0.24318621769623   -0.19876194170342   10.69122503349841
C         0.00342233695544    4.63591377161087    9.06267962130268
C         3.50805049357330    2.51317455248620   -0.88008115378840
C        -1.59461365749594    1.83854975164539   -0.83314708799801
H        -1.23860165371936    2.47200397221313   -1.64225170215968
H        -2.65668871690980    1.66387924082616   -0.99072112709285
H        -1.08778674895934    0.87691267890168   -0.87722510347689
C        -1.45493533601739    0.83581466263956    6.09989033315258
H        -2.35702801275266    1.40191934447678    5.83990932630403
H        -1.68444729515758   -0.22933342972314    6.13633264347223
C         4.14431944788466    0.57417177459274    3.51135877969283
H         3.71446746192379    0.88164839697175    2.55589156404698
H         5.23089974956813    0.60367080506435    3.40761721024879
C         2.13081635595035    4.58295748644331    3.46774964464688
H         1.47745717833840    5.45185975011353    3.60559872955472
H         3.17262931849008    4.90266089602446    3.44472753952771
C         0.10686381322489    2.19650161647836    9.79491984767236
H         0.47225471100610    2.54208458550191   10.74383032886410
C         2.23883370662041   -1.05522354874624    4.06561087344731
H         1.65500125843224   -0.60943822204589    3.25877579712376
H         2.03365787259464   -2.12714699165337    4.06316263967016
C         3.73337713544129   -0.86373283540559    3.81295959576241
H         4.02916457854524   -1.48458036035841    2.96460871281566
H         4.28486366163238   -1.22189108666498    4.68546913188341
C         2.23307799441446    1.89442605260084    4.50805937182866
H         1.91676294359038    1.85155482848420    3.46002050706879
C         3.72773169346035    1.58708736821699    4.57770806574409
H         4.26933060036577    2.51657236634874    4.39534242339851
H         4.00144942876850    1.24154238480455    5.57431050796903
C        -1.96046997123832    1.57191429230539    1.60492761547347
H        -1.33535993814660    0.68617481370707    1.70775848832505
H        -2.96498598387435    1.25839242882087    1.33062295424443
H        -2.02288964519312    2.07555540326886    2.57027114522376
C        -1.03649862637654   -0.97771999473822   11.02657588194585
H        -1.41078036406146   -1.51875737443879   10.16216170129689
H        -1.81345480903624   -0.29480316087919   11.36273678680334
H        -0.84129698296174   -1.69676970101173   11.81934234872130
C         1.31593658219901   -1.16401959895133   10.16639218597321
H         0.97704757231537   -1.68670514963112    9.27609434161352
H         1.55669195283435   -1.90535398705027   10.92525410219203
H         2.22354252217740   -0.61759108010951    9.91775302839672

