89
CSD_code = CEFTOX | q = 0 | S = 0 | Stoichiometry = C45H39CuO2P2 | MND = 4
Cu        2.72592870912966   10.69177405747517    4.69493534448233
P         2.42899994844185    8.34375705840660    4.77419355328808
P         3.22419616926350   11.28287129844719    2.60926851422302
O         1.47774878182954   11.48005285461010    5.93972588212680
O         4.27118443225840   10.76067102734723    5.99687685268973
C         1.64120311626823   11.41291246296637    7.20405145038855
C         0.49240963727283   11.66418277654151    8.01346094290191
C         0.51729297822584   11.59641684905817    9.37133000176913
C         1.70981326204618   11.29171691162017   10.05238120961371
C         2.84182018095871   11.08780859214371    9.31289885207751
C         2.87191685731167   11.13697016130897    7.89911372818415
C         1.71005563966023   11.18963613095497   11.54902853796847
C         4.11526507811321   10.91304781999255    7.22559525705783
C         5.39254819885244   10.85100421711934    8.04316902443172
C         3.86322706584830    7.50901306763625    4.02155516109569
C         5.08113542637758    8.18150909298435    4.12533047770113
C         6.20950721410942    7.68203251804469    3.50466562458121
C         6.12952402475795    6.51667677158534    2.75852065205293
C         4.91928349698137    5.85345913950212    2.63980908562872
C         3.78627651978282    6.34501269461419    3.26457661655139
C         1.03521444470065    7.25934325109666    4.30568735538954
C         0.15349315530190    7.73774561322977    3.34291255883150
C        -0.91126409324453    6.95962930785823    2.92526701515676
C        -1.10669778607183    5.70447006851497    3.47693716068141
C        -0.24034924308442    5.23068969887437    4.45043032619883
C         0.82819039018713    6.00258308793251    4.86695806402954
C         2.58243436697106    7.95534400561631    6.54407900682682
C         1.45561532515058    8.20757496904788    7.32660429348712
C         1.51349466963658    8.06702158527519    8.69812844260191
C         2.70021999945282    7.68560948103856    9.30471734813667
C         3.82274557140074    7.44006360187002    8.53267970645859
C         3.77112383428320    7.57779352582342    7.15619256007270
C         3.06435436711220   13.06583679188169    2.27779460961921
C         2.32559332673930   13.81507942816372    3.18783708177987
C         2.16673333251195   15.17569752360738    2.99293906280805
C         2.74967123445205   15.78918499842467    1.89599343631018
C         3.49272396203808   15.04446081440980    0.99249243886321
C         3.65351686261697   13.68407526355696    1.17918351221466
C         4.95074024678969   10.98053913933532    2.11266017108066
C         5.90792481047545   11.35395337464379    3.05400850174573
C         7.25074068755972   11.16320315707028    2.79495326651404
C         7.64775932978226   10.58560710543373    1.59842516402804
C         6.69879154763763   10.20567223226952    0.66455563780628
C         5.35184587852979   10.40321721693257    0.91455971497244
C         2.25547503266626   10.51576140189372    1.27858562587584
C         1.31658021698711   11.21153024079235    0.52415321004973
C         0.53228585759085   10.53664080934534   -0.39483637851020
C         0.66779372925784    9.16788741178328   -0.56020780644047
C         1.58901644175434    8.46633186267739    0.20266519712162
C         2.37303592697517    9.13409268664060    1.12286526658991
H        -0.42129916394407   11.88987147897092    7.48243872749437
H        -0.38540617416937   11.77281278593583    9.94136649269034
H         3.75228318791810   10.85193557996194    9.84149979575168
H         2.71559240624897   11.02214499376130   11.92755222300343
H         1.31751189303088   12.10240975972516   11.99625192786326
H         1.07766461206918   10.36282915782773   11.87372348379635
H         6.23503651771198   10.79248814795372    7.35671569395978
H         5.50029745706042   11.73239548985296    8.67025704838833
H         5.39402006377464    9.96251414369431    8.67120776480475
H         5.12291675465129    9.10551471891783    4.68702943452915
H         7.14872213620902    8.20902760687139    3.58872110701607
H         7.00820971627551    6.12976228124057    2.26356827271526
H         4.85521954695464    4.94869515041072    2.05220874899710
H         2.84262903984285    5.82909170095351    3.15719652049396
H         0.31164346077980    8.72567973202906    2.93115066106428
H        -1.59005753384157    7.33411872310665    2.17297003040890
H        -1.93784758255637    5.09472651462343    3.15388911678360
H        -0.39882226559378    4.25368637670855    4.88414071819403
H         1.50573746921415    5.63554091695494    5.62601114686135
H         0.53923777846873    8.52456477574179    6.84563191692962
H         0.63874222843290    8.26987013515132    9.29779223689927
H         2.74988415140369    7.58602259653974   10.37904358963515
H         4.74842864047364    7.14072799099168    9.00495316243684
H         4.65359790440672    7.39419746898694    6.55921581595154
H         1.88751067751754   13.31483377061006    4.04330423060127
H         1.59258928215063   15.75925214709342    3.69758606385053
H         2.62931394456330   16.85208625741926    1.74469135451058
H         3.94855043509309   15.52819552033044    0.14052194228322
H         4.23333410038603   13.09779121600200    0.47930166017323
H         5.57577639543383   11.77765635665139    3.99314426915968
H         7.99104691408727   11.45624283405001    3.52557857167891
H         8.69724506220890   10.42821379750167    1.39560191294793
H         7.00882187670000    9.75387904827883   -0.26685155219822
H         4.61680426333206   10.10731393367829    0.17941926800252
H         1.20243858489618   12.27804738705811    0.65772399555850
H        -0.19163701614781   11.08180810581069   -0.98319965512307
H         0.05154017082456    8.64664158493910   -1.27793520017468
H         1.68842625110030    7.39677510480683    0.08680551815168
H         3.08545664980390    8.59346955140292    1.73306366469340

