69
CSD_code = CEFVUE | q = 0 | S = 0 | Stoichiometry = C33H28O5P2W | MND = 6
W         4.53211690799424    9.90072308772516    9.77822088005935
P         4.05278312234969   11.20267354114881   11.79252186852190
P         6.56586299224690   11.24030250894577    9.91124345052750
O         5.30463307798866    7.35040189860848   11.41633416743885
O         3.28666949826960   12.37101008745019    8.29252541212125
O         5.56234389105887    8.46165338717719    7.19679395621001
O         0.56497327248994    7.14952670394733   11.84694236996135
O         2.36991247037845    8.42363011649411   12.31786472390529
C         5.11954842307008    8.31096565197163   10.81929821995532
C         3.75745537658723   11.45730762449657    8.80501902231397
C         5.16299431820347    8.99605786506013    8.13099969623753
C         2.86029057281296    8.84254977846386    9.78895889683662
C         1.82758959416843    8.09055225300224   10.07118390392439
C         1.49286718887552    7.82598971882128   11.47284689300527
C         2.17479348162837    8.15486964409710   13.69564192475505
C         5.04577275104860   12.77800669792967   11.66736439533308
C         6.49128583263144   12.50415909176313   11.27356688659823
C         4.66108269177597   10.60598767181469   13.40759254723440
C         3.97065802936829   10.73783222858119   14.60667406269829
C         4.52198250787333   10.25822957025073   15.78276106486303
C         5.76257335099998    9.64358480603134   15.77529465138273
C         6.45091627842741    9.49614452043608   14.58161703723278
C         5.89975762789705    9.96844586661788   13.40581380252821
C         2.41636134326481   11.92122465848758   12.13141463465858
C         1.34638703437365   11.43803926954694   11.38704952172501
C         0.07359198715327   11.94672501283808   11.57709824509334
C        -0.13851416214466   12.95023556014060   12.50742065627849
C         0.92678868693830   13.45068547840696   13.23955272506058
C         2.19986527410187   12.94362991465001   13.05424914116249
C         8.23845399132801   10.56308383399820   10.17570757760524
C         8.40578534596290    9.18667939918922   10.25070640267185
C         9.66577456723031    8.64880493141208   10.44906074296090
C        10.76212798248028    9.48576266970813   10.56964441525194
C        10.60096569546598   10.86068070317246   10.48493246742972
C         9.34492083010442   11.40096021955456   10.28636209830403
C         6.86180221740929   12.22221708290411    8.41072695901724
C         6.35692332556805   13.50518588069569    8.23337565470919
C         6.51778269300940   14.15109879521105    7.02056804253962
C         7.17027965729922   13.51968423942551    5.97554389577930
C         7.65984810131540   12.23356434795733    6.14085021279574
C         7.50138073733739   11.58484821440969    7.34975225365865
H         1.18057985944740    7.61380572353580    9.34758408029804
H         3.15855003761340    8.11397051269089   14.15935821086977
H         1.57888515803074    8.95106682327325   14.14848261638387
H         1.65298199168902    7.20342528993090   13.81986428746501
H         4.53994312783829   13.37574448818284   10.89993631740635
H         5.00843010273289   13.33113414000866   12.61184880938772
H         7.03380478069142   12.08309366435474   12.12754686154877
H         6.99959469464252   13.42632733321337   10.97201497344533
H         2.99429022591681   11.19856172459481   14.62319705309616
H         3.97633721791295   10.36153711024406   16.70938569621237
H         6.18759319026005    9.27066973092631   16.69523834030212
H         7.41316604085590    9.00544433825133   14.56622310473867
H         6.42844109600612    9.82699886610227   12.46892743687864
H         1.52925405283829   10.66116243221768   10.65707246088320
H        -0.75168564929047   11.56076526174444   10.99755457696902
H        -1.13039376095809   13.34941616207589   12.65905812256825
H         0.76472169413747   14.24179942738257   13.95765439672254
H         3.02098472036472   13.34842582450391   13.62978850364403
H         7.54038163729179    8.54295899526901   10.14515502129401
H         9.79135848256233    7.57777066509072   10.50687863813470
H        11.74613634477047    9.06830956362334   10.72373767931823
H        11.45938770930424   11.51099157036421   10.56987403577795
H         9.21796630892528   12.47213806383005   10.20573062064109
H         5.83004631732311   14.00380905693918    9.03524610288443
H         6.12478748558978   15.14879061540319    6.88910639841541
H         7.29051149349737   14.02654431257150    5.02972130059807
H         8.16019593722187   11.73527378174407    5.32372104378450
H         7.87206113638289   10.57624998940670    7.48339782998731

