38
CSD_code = CEFZOF | q = 0 | S = 0 | Stoichiometry = C14H16CdN2O5 | MND = 7
O         9.87903574936519    9.71569900011440    2.97436930414662
N         6.60043024782834    9.23676461457186    0.75630353428183
O         8.31493881719407    8.18873117835797    2.77994767380023
N         8.26396426534786   11.25641903598360    1.13899628848126
O        10.31736431549982    9.81579234433821   -0.77100243376949
C         6.18065331337970   10.19607624142505    1.58341653716055
C         9.76551547586262    8.95410746592769   -1.49540027932359
C         9.09599442142904   12.28157109671111    1.13990564460036
H        10.07495403848263   12.08889935347821    0.71987255961984
O        11.28776296464325    8.05646880866637    1.22703786325426
H        11.60751119964543    8.63419835656967    0.51965002693403
H        11.31482066010193    8.60075341400770    2.02889118192660
O         8.90944449247480    8.15876849834579   -1.05123719400078
C         9.05527677094674    8.91901123467820    3.47561044399834
C         5.90276881848949    8.12190206326981    0.64449097832035
H         6.30187073947496    7.39009447354932   -0.04641150185542
C         7.03246822024541   11.40096776824724    1.63191621245122
C         6.59394638859817   12.62461529697723    2.13823833933289
H         5.58762868656597   12.74231400115873    2.50759472721769
C         5.02760987434904   10.04500254709821    2.35198777205041
H         4.71627170617770   10.81028192094922    3.04539368737378
C         7.46726679895418   13.69889428910189    2.14449326560345
H         7.15131549215610   14.65467099562930    2.53653523692704
C         4.73486731815042    7.89309129932706    1.35999887407859
H         4.19191814039126    6.96853342468111    1.24428025368009
C         8.74568952346205   13.52881829588466    1.63808355706825
H         9.45361573034047   14.34218602050504    1.62836611051365
C         4.29970890558281    8.87222021345853    2.23760976579505
H         3.40889621668141    8.72551416804469    2.83109836037204
C         8.95372231848673    8.82187679893947    4.98950346223528
H         7.93221621329267    8.59251701789350    5.27791839075683
H         9.28565050074710    9.74983357297921    5.44566988398664
H         9.59871141257605    8.01206975158852    5.32381825885007
C        10.17116620511554    8.85309021594677   -2.95509626136159
H         9.32375124070309    8.53068157760477   -3.55220123665220
H        10.95999497658611    8.10816393969199   -3.04057446029336
H        10.54810605662017    9.80962296515358   -3.30472378422787
Cd        9.00007178409853    9.06537673910558    0.89954895666023

