38
CSD_code = CEFZUL | q = 0 | S = 0 | Stoichiometry = C14H16N2O5Zn | MND = 6
Zn       15.05928073506152    2.46081681402425   18.83568356726972
O        15.75339337524357    0.64949891852042   18.01722587338482
C        15.47003558719502    1.15023302473543   16.91304289086097
O        14.98649508651778    2.30588350197907   16.82847680345292
C        15.70427146856995    0.35935536895982   15.64219854993948
H        15.54276813078032    0.99133998926496   14.77464297564401
H        16.71637944135160   -0.03597892935251   15.64318713700272
H        15.01222280463181   -0.47913377890221   15.61958945254179
N        17.05592866037998    3.11382315048780   18.94483904762155
C        17.62247546586364    2.93435306899672   20.13634334758153
C        16.86829043968873    2.09080857707012   21.07943725399366
C        17.42761804728609    1.56285271316682   22.24202301325096
H        18.46242029269867    1.73748972721045   22.48858346657702
C        16.63974566032176    0.78487737526602   23.07385462809289
H        17.05422360059702    0.36380543412161   23.97802445369832
C        15.31969534967854    0.55439661654200   22.72449568328854
H        14.67336675536644   -0.04367128342205   23.34648587229395
C        14.84576876276355    1.10602578371849   21.54268873979189
H        13.83023409176823    0.95228716532412   21.21033997456835
N        15.59941815429803    1.84666321527641   20.75377883615580
C        18.84343478608173    3.53077130667894   20.44934450157774
H        19.28994160496317    3.40674702465206   21.42273546887888
C        19.47157222166319    4.31335080462154   19.49490233341081
H        20.41600716356235    4.78806792059682   19.71735200783837
C        18.86811218617312    4.48233721802330   18.25947719239919
H        19.32523539001743    5.08667588130542   17.49241455878410
C        17.64787537836809    3.86119811651765   18.03462973063655
H        17.11784716792257    3.96240057111279   17.09843742889730
O        14.58531847206362    4.30816272388003   19.35038399034465
C        13.50133778337488    4.76889428573013   19.80406756576842
C        13.48278724649722    6.26204634674900   20.10967019980903
H        14.49551324600366    6.63007198239420   20.24256306773749
H        13.02427333995344    6.77576985292930   19.26732643264360
H        12.88355444465789    6.45010800143005   20.99597507645438
O        12.47207682150215    4.10838699358674   20.00806257031075
O        13.04213445383219    1.81311422462771   19.05029882928779
H        12.62348207767387    1.78479064719357   18.18469207295822
H        12.68996430562493    2.67227964498470   19.47962540524681

