55
CSD_code = CEGBOI | q = 0 | S = 0 | Stoichiometry = C24H22CdN4O4 | MND = 8
Cd       -3.95276250233587    6.04340996166076   10.39339568992835
O        -4.19242824193781    8.21960127905896   11.02445446928852
N        -3.68840674022590    5.08796929544290   12.76243533244016
O        -2.28231377189278    7.20600597893085   11.41318194926605
O        -3.39437782521930    6.66050966239419    8.33074822381173
O        -5.47440708015194    6.01255506529896    8.61651266589380
N        -4.46225579103689    3.72069091345098    9.94890411778912
N        -1.95420199231986    4.55592455416396    9.69661728693619
C        -4.27158756384467    6.03252898098978   13.50153241598520
C        -3.01566330899616    8.21708278731631   11.43835100526579
C        -2.44780188729153    9.50783256548132   12.02380306571439
H        -1.71842674199654    9.27580279364547   12.79506871899355
H        -3.25141274115514   10.11941241826455   12.42390936759993
H        -1.95284154526636   10.05551704865023   11.22505733080900
C        -4.55392978595348    6.46401323121179    7.90688791128446
C        -4.84638100377724    6.77819755143026    6.44195026555516
H        -3.93826028527614    6.68249802845234    5.85362398407931
H        -5.20048845095399    7.80463015346482    6.37758390689358
H        -5.62122838535122    6.11524656616324    6.06694612679962
C        -5.63598320150899    3.19225174469415   10.23767519242075
H        -6.14540425537281    3.62404073106271   11.08851311123763
C        -6.19679096826893    2.15210861449590    9.51114690413196
H        -7.16451754326286    1.75464822323605    9.77453599251931
C        -5.48147246162235    1.63964315163331    8.44046760686855
H        -5.87724903398138    0.82595992566362    7.84970900756090
C        -4.24660724924977    2.18585216864739    8.14039992890448
H        -3.66051074900403    1.79009010521485    7.32576268548238
C        -3.76860310900621    3.24329768377183    8.91609931369160
C        -2.47417333658213    3.89934127935584    8.65830677793903
C        -0.80995111653641    5.19461733354281    9.54160858473087
H        -0.44687257128243    5.71703706904789   10.41631199041822
C        -0.11376878598860    5.21903146852399    8.34040313590891
H         0.81386507425619    5.76288008687876    8.25333326022949
C        -0.65232590912346    4.54870315704407    7.25527976002062
H        -0.15557228873118    4.56133828217265    6.29544706827331
C        -1.84919509730404    3.87117984745947    7.41284327369888
H        -2.30381170096728    3.36763169120687    6.57373167019560
N        -5.91234022165999    6.15654435048047   11.78913744321042
C        -5.61277767437906    6.45066380475032   13.05460767617032
C        -6.51524961387107    7.11932496760167   13.88124326405262
H        -6.27764772501644    7.31838787318489   14.91463016915761
C        -7.73300026657747    7.51839961854637   13.35749227070589
H        -8.44486596932710    8.04718500287933   13.97522013196036
C        -8.01807811163627    7.23380668885419   12.03223770038109
H        -8.94984456213207    7.54226828763159   11.58472119907454
C        -7.07220423405808    6.53997814641743   11.28943328268418
H        -7.23625888994796    6.28614438116160   10.25059023313417
C        -2.47278694194007    4.68552061518558   13.08081991601797
H        -2.05461691837171    3.92007725603205   12.44064501076173
C        -1.75926335454344    5.20068885238083   14.15318473056401
H        -0.76385487155444    4.84823964454329   14.37415373275272
C        -2.34950830839168    6.19595638898816   14.91451221522641
H        -1.82032731624056    6.64565389515857   15.74268856589466
C        -3.62673635574312    6.61834604988710   14.59069766111835
H        -4.09471871610606    7.41193277718128   15.15184569855533

