32
CSD_code = CEGFID | q = 0 | S = 0 | Stoichiometry = C10H9N5O6RuS | MND = 6
Ru        8.22130170840609    4.77379215249036    6.78279236256275
N         6.64912064323584    3.44193764626526    7.79575633271753
C         5.37633365919173    3.82272833520269    7.75824009041069
H         5.12797171876827    4.58211379350470    7.02678265094500
C         4.41474948392637    3.27686079057850    8.59036472622750
H         3.39631187132000    3.62484922149553    8.53841481991935
C         4.79376743550203    2.29498590701061    9.49468256298865
H         4.07590050443047    1.86158687693902   10.17406042090834
C         6.10750802024454    1.86042795531106    9.49798799807366
H         6.45131880598509    1.08093057284171   10.15808402325911
C         6.99711881763892    2.46305048991545    8.61868203242676
S         8.68477891114637    1.88613344941510    8.61137046248839
C         8.97116364693779    1.67536029258203    6.85534920165500
C         9.20831175224871    0.38769173250099    6.39827771548561
H         9.19546167598407   -0.43712003270022    7.09202909517001
C         9.45477836665558    0.20510572394795    5.04738710715233
H         9.64369846248975   -0.78325474990684    4.65719205664242
C         9.44443372484687    1.31250067784936    4.21404187916790
H         9.62453408226131    1.21688697514850    3.15576108417370
C         9.20424660249065    2.56220716527703    4.76253229090549
H         9.19570289466039    3.45749031299485    4.15125681911523
N         8.98898800595974    2.74004250427921    6.06243800542252
N         9.44310877809754    5.85434717197023    5.70574153482595
O         9.50828863677072    5.57747086122397    4.52774115109071
O        10.07146223113600    6.73298483603176    6.24847387936996
N         7.23703356167118    6.38271472007701    7.27744447814402
O         7.02566879097565    7.21627774842962    6.43243805917029
O         6.78174258239664    6.38687840520088    8.40307815893241
N         9.22252012362801    4.89169492471349    8.13352200038149
O         9.91143975618988    5.04231967852822    9.04890158902973
O         7.01358627321120    4.63623175484760    5.29475320666244
H         6.87144847159289    5.32547210603494    4.63832220457383

