43
CSD_code = CEGGOL | q = 1 | S = 0 | Stoichiometry = C18H21ClIrN2(1+) | MND = 8
Ir        8.29225817981155    3.13240919090243    0.58531859617754
Cl        8.10187464941614    1.45621540123686   -1.00636448648882
N        10.06402790769777    1.95016970282085    1.17126395424642
N        10.18843981658289    3.47558555149810   -0.46441297969116
C         6.37331679051179    5.38262405609354   -0.92873794798252
H         7.15265716490531    6.06914048904693   -1.24685670399977
H         5.47051166023696    5.96217140620913   -0.73082385835958
H         6.15705954002887    4.69144927605387   -1.73944130111647
C        10.54529843517850    0.94154275416837    1.85682030003249
H         9.91463409858404    0.52241774211468    2.62820546709225
C        11.82220542892319    0.40707851414538    1.60835987028517
H        12.16727825566802   -0.42189757714090    2.20487979559503
C        12.60602448960325    0.92967057473641    0.61098671260051
H        13.58440276748191    0.52795924973915    0.39511454328695
C        12.74633666953587    2.65271425220481   -1.23620819675645
H        13.73137772217665    2.33488291851456   -1.54240718032776
C        12.08752206537111    3.66589464949655   -1.88555461647327
H        12.54103579554618    4.17283325258824   -2.72197302022801
C        10.79824094018281    4.04809583959749   -1.47422287385789
H        10.26565061377889    4.83210084781987   -1.99388383291511
C         8.31591670300996    6.45652095766168    1.36032726523574
H         8.63620303883452    6.73138754822431    0.35867991309244
H         9.18176197300433    6.45572729458166    2.01721314434657
H         7.62556241165137    7.22402281253353    1.71296918451427
C        10.82330949501881    2.47453746444300    0.18437007012784
C        12.10760212955733    2.00796613215046   -0.15359646454607
C         7.58024242257406    4.21253095757543    2.43108869868509
C         6.68248638640034    3.13084147571641    2.05187767948075
C         6.11245834437858    3.45265302960623    0.77780735985057
C         6.76171185099034    4.64229266177219    0.30441105298825
C         7.62365803637364    5.13832462048470    1.36598993331545
C         8.21567963123089    4.36921925227175    3.76898635803694
H         8.48841650433397    3.40750078030958    4.19471891478617
H         7.50880537030580    4.84696635607040    4.44792304463718
H         9.10442149853277    4.99159584464866    3.71654488626744
C         6.22469827977960    2.03102594250908    2.94815853160334
H         6.95429190409015    1.82224612648285    3.72515672032799
H         6.04342476665848    1.11963672237624    2.38351375585240
H         5.29048289198454    2.32347764278758    3.42940622318347
C         4.99959370052026    2.74893652341522    0.08501443237850
H         4.65973308853659    1.89173409660596    0.65719735406266
H         5.31091891234325    2.40311734101304   -0.89911486187560
H         4.16666766867425    3.43858032490964   -0.05020543745911

