44
CSD_code = CEGGIF | q = 0 | S = 0 | Stoichiometry = C18H21Cl2IrN2 | MND = 8
Ir       10.31566538282754    3.19658484332995    6.90761057578300
Cl       12.20651197942636    3.14304501802646    5.54471953502224
Cl        9.10825419994601    2.10565019345712    5.19233530120095
N         9.80681474332190    4.93147276452033    5.92379723847884
N         7.69323946520463    4.34244378909033    6.56557804677957
C        12.91564268501840    1.87795933656495    8.60362932990794
H        12.98597907980389    0.79349995654000    8.60785417347944
H        13.42968985442863    2.27067244746904    9.47961557202978
H        13.42395373541594    2.24933379460818    7.71274301805484
C        10.31319076788504    0.05495377357386    8.02841757488430
H         9.51045447029565   -0.16748891184710    7.32886374113647
H        10.14367004474329   -0.51653466501240    8.94325382760800
H        11.25074341055428   -0.26567116687586    7.58196409497962
C        11.91746347425703    4.72736648519461    9.45708254544758
H        11.44087144921511    5.69785721408963    9.33844409188691
H        12.85271311816336    4.73187458555594    8.90235216187819
H        12.14532569803773    4.58713780996581   10.51589632053963
C         7.77859838236703    1.74990796471743    8.69159534560881
H         7.47572764587490    1.47802197753220    7.68140203863165
H         7.07793210059900    2.48134477188603    9.08307796702123
H         7.73786486374684    0.85298656481530    9.31018521421443
C         8.72866814761251    4.66857369474051    9.61924506418852
H         9.20435748937559    5.63972028363346    9.50491146794602
H         8.55304927385712    4.49914195293972   10.68334947354105
H         7.76965311373078    4.69258249730448    9.10850375620833
C        10.61508210500210    5.73684726138526    5.25555883231734
H        11.67650193905778    5.58536861741557    5.39645091099320
C        10.15888750549030    6.71388826648662    4.36418586602337
H        10.88163468982041    7.32360669324813    3.84627564014011
C         8.81467593225821    6.85339992146573    4.13612304038069
H         8.42913238702762    7.56135644265352    3.41752976157282
C         6.51999989607881    6.06885418578864    4.72215025115341
H         6.07575965998265    6.75315456711388    4.01363201834515
C         5.75550535586112    5.22789215703874    5.48464962804993
H         4.68102711793076    5.20820203555563    5.39403305189431
C         6.39802888201776    4.39593384052761    6.41750066818222
H         5.81935453753230    3.75319005212007    7.06749582166571
C         8.46517366220649    5.10610366216686    5.78273603847918
C         7.92381584914902    6.03928205166118    4.86060687946636
C        10.33937362161563    1.51864546128003    8.33526113784499
C         9.16596484241217    2.29512755298160    8.67835324166279
C         9.59235647895435    3.57999428410656    9.07325974149139
C        11.03128941977356    3.62495819093428    8.97186663384266
C        11.48820154212188    2.31445778024092    8.61660336004258

