81
CSD_code = CEGGON | q = 0 | S = 0 | Stoichiometry = C35H35FNO6PPdS | MND = 4
Pd        7.97393339716519    5.24095246117378   13.44679616688640
S         8.55280346320298    2.83929525908702   14.71747834418729
P         7.06734837172335    3.58496680049191   12.22403208016000
F         7.80020459349850    6.49815630510744   11.97365105319587
O         8.02114644152043    4.13698620690551   15.18382686985600
O         9.28123376355278    2.99538897444069   13.46364577397384
O         9.27398463292097    2.14634015674196   15.75405180396626
O         5.05063169099302    4.93651840098166   13.38742588062963
O         5.72339455353790    0.91335114145120    9.35701344933419
O         8.90850398430899    0.15894114718758   12.66873370511911
N         8.99987026480368    6.60925073608816   14.52435049224743
C        10.86843548420432    5.88446752415358   13.18027369511619
H        10.62117464938881    4.81432682015928   13.25458877772272
H        11.94749323755311    5.99878780208735   13.10863565720815
H        10.39904329456153    6.27508246601249   12.27044646474294
C        10.32464708191699    6.62684649719689   14.35867117719507
C        11.13512552694549    7.33466596408504   15.23950931603994
H        12.20452953272952    7.34248707275988   15.09886124518940
C        10.55498898531016    8.02358055822780   16.29144020607560
H        11.16698773097134    8.57765581646688   16.98731778401938
C         9.17753062935101    7.99659786891114   16.43465899159969
H         8.69350018603038    8.52710514187758   17.23960191338557
C         8.42093431496434    7.26818764717528   15.52609185446552
C         6.93251451200600    7.15463705752814   15.60511023538997
H         6.51838946692640    7.23365841479730   14.59184511696846
H         6.50459843029584    7.91732786822458   16.25162572514887
H         6.69042653465664    6.16283675796907   15.99956834273782
C         7.06191394194830    1.91710733873650   14.38095004523191
C         6.55527387330333    1.00519474712216   15.28405090843860
H         7.13386578511230    0.77883328199373   16.16714272575313
C         5.32427817292657    0.41996890541574   15.04334582777301
H         4.92264839563704   -0.30071199058962   15.74116338856460
C         4.58415897382962    0.76525823709863   13.91447035014300
C         5.10173193044607    1.69601886489060   13.02591303595809
H         4.53190305609637    1.98351751625409   12.15284788211301
C         6.35353435536888    2.26598211847028   13.24363564290626
C         3.23251700675514    0.15810274339445   13.68769106961953
H         2.50559711574148    0.59306360963274   14.37394875708241
H         3.26061381918015   -0.91406309474416   13.86743312265983
H         2.89437307997998    0.33595153485721   12.67060606841434
C         4.10615272915535    5.45738297681342   14.29668823572213
H         3.94808228980978    6.52936341602339   14.14057277527939
H         4.52180621999547    5.28938455980800   15.28908336322206
H         3.14946925653272    4.93071867991150   14.21140432964681
C         4.69976816031309    4.86023851362893   12.07063711394001
C         3.56594302555690    5.40972477275980   11.49480016220333
H         2.85456005710281    5.97429230804970   12.07741559212389
C         3.35460001292336    5.24645480786306   10.13228509179631
H         2.47165735566104    5.67693792180491    9.68299116412499
C         4.26043650962936    4.55430513826290    9.35009090619792
H         4.08596704273201    4.44727685324213    8.29001907921453
C         5.39828254920294    4.00797890235487    9.92499363692436
H         6.11514191041254    3.46799520059441    9.32547476124950
C         5.60959112917311    4.13569164325771   11.28574571313001
C         8.13096790861626    2.86436363735960   10.93722894061005
C         9.01839055597323    3.78774705626762   10.38540979988995
H         9.00648857197588    4.80451301126275   10.76263314388860
C         9.88952724973360    3.41802153805080    9.38005738795361
H        10.57310248586966    4.14063993131625    8.95895551586471
C         9.88502486514121    2.11100889809560    8.91910332881746
H        10.56378613375833    1.80752553805614    8.13499974495113
C         9.01819995717790    1.18874762483867    9.47351276186223
H         9.02144781111069    0.16527318379546    9.12597723720963
C         8.13488400921531    1.54623279622791   10.48823273227578
C         4.49305947984619    0.67065909169712    8.72447858154645
H         4.42237316022647    1.40807404517010    7.92666065616922
H         3.65145375143461    0.80603574377872    9.41215624808219
H         4.45035958888115   -0.33432151535521    8.29173893479846
C         6.06732837697833    0.14309456301510   10.43108184673424
C         5.31216276347537   -0.91734743027652   10.92022575259823
H         4.38033596544788   -1.19966655616408   10.45786304489384
C         5.77252732856751   -1.63083479691162   12.01145906612633
H         5.19047009819176   -2.46224268938678   12.38079732088582
C         6.96307317503044   -1.31040237287078   12.63509389738304
H         7.29435311566183   -1.88905663227546   13.48155993982368
C         7.72322403678945   -0.24765118163823   12.15594056307537
C         7.27029090968011    0.48302410460610   11.05116450159477
C         9.43901970912306   -0.50573216451533   13.78899517891328
H         9.72592051716193   -1.53370933814264   13.53851042938589
H         8.73955729502079   -0.50865746368289   14.62878678014487
H        10.31552867035198    0.07049300345227   14.07722379246916

