48
CSD_code = CEGHEC | q = 0 | S = 0 | Stoichiometry = C18H21IrN8 | MND = 8
Ir       11.46741920064010    5.39316596838803    0.79942114628964
N        11.12712216956216    3.61395254825645    1.79374721758324
N        10.05953568970865    6.20128541511957    1.97777218635831
N         9.97364799652892    6.31561267548261    3.14370696537330
N         9.70531119049951    6.48425797418862    4.23154440094164
N        12.74196901674868    5.90537533370665    2.29662903957296
N        13.87893729446358    6.05804209690489    2.06587624045318
N        14.99676327339896    6.22212127554063    1.94326920958867
N        13.35300436350028    3.33263821284959    1.38937351408254
C         9.62948653970052    7.43318828098456   -1.14148441245430
H         9.90737157110413    8.37231098608582   -0.67177734694793
H         8.73055033743902    7.06213410357160   -0.65505770598595
H         9.39905721928506    7.62442104943423   -2.19114502624093
C         9.97320263028222    3.14968479715366    2.25148589737316
H         9.11344351376992    3.79591818072602    2.14165407337488
C         9.84389995880206    1.90622376676905    2.87176379983227
H         8.87362989992904    1.59542428359972    3.22436535794180
C        10.95164914981285    1.11402248362865    3.05321553854621
H        10.89175691949600    0.16296360421520    3.56049112256622
C        13.41276536379080    0.87477630895220    2.69191970252052
H        13.42267235018831   -0.08853624987993    3.18102645447716
C        14.55813405354938    1.43460553471287    2.18675552580579
H        15.51033098011417    0.93613306863933    2.27516015383504
C        14.47255344297457    2.67037993652807    1.52700658120143
H        15.34965561304056    3.13269756951447    1.09518578300243
C        12.23195845610881    2.83238628210503    1.91920584670576
C        12.19230263191211    1.57205275704618    2.57129473230953
C        12.12785916686146    6.72923719472568   -0.82839013542386
C        12.87764979492393    5.51363368397538   -1.07514184831191
C        11.95625128593767    4.48048306465062   -1.29573273692724
C        10.62175261784934    5.03505183972616   -1.23526696586941
C        10.74066622984396    6.43966442582327   -1.04838714749361
C        12.74852506608327    8.09118473437934   -0.75993306805539
H        12.10023841979690    8.79301225568863   -0.24041664346658
H        12.92571225215278    8.46820129623125   -1.76951204783987
H        13.70231788047507    8.05354397128019   -0.23788750062028
C        14.36266190492795    5.44894689884080   -1.18549920423310
H        14.85080684886035    5.74102919591319   -0.25192553732884
H        14.70409881783467    6.13528238665081   -1.96142899763188
H        14.68965393130282    4.44463583117116   -1.44129605013375
C        12.26641436135674    3.06898417987726   -1.67532728028467
H        11.51891188674932    2.38132014331039   -1.28157603992737
H        13.24020463476221    2.76574180474938   -1.29788559481070
H        12.27135914573260    2.97089760208132   -2.76304102103043
C         9.37229355873415    4.31917616371805   -1.64282258755820
H         9.39503565446409    3.27493451494131   -1.33544963141047
H         9.26097274547300    4.34846346380288   -2.72885275453427
H         8.49738296953008    4.78973710423612   -1.20003320521286

