65
CSD_code = CEGKEH | q = 0 | S = 0 | Stoichiometry = C28H33FeN3 | MND = 8
Fe       -0.32194317880450    2.79717851163854    5.46023124832069
N        -0.35582425804209    2.75204605701561    7.30278405869703
N         2.24520036391600    2.22676632224260    6.44099222952579
N         1.75527486252750    0.86182089564712    4.85396432170018
C        -1.53751727518067    2.56593316014909    7.91121602072123
H        -2.33775603071458    2.27604910146735    7.25220673884557
C        -1.73500726661236    2.72205010110889    9.26361639804385
H        -2.71636372844550    2.57586234267820    9.68704935214638
C        -0.65293224823697    3.05645020550930   10.07065141852909
H        -0.76355624347782    3.18175730083969   11.13573101017528
C         0.58285405046228    3.21455027808892    9.45612556283913
H         1.45564420741997    3.46546491836519   10.04054018481937
C         0.69467735267096    3.06418109711261    8.08805538362360
C         2.01300488197734    3.28050969341438    7.38550075186381
H         1.94949784380280    4.22403001907879    6.83299781415626
H         2.83294523300858    3.33047861048338    8.10284349890415
C         3.27000250101714    1.32099882580914    6.37428091102688
H         4.12473079758277    1.35523850914215    7.01904702988991
C         2.96419613416156    0.46602737318031    5.36768880461498
H         3.49866224627859   -0.39257728443732    5.02039618591127
C         1.30675178756028    1.94219725848440    5.52418813989887
C         0.95416400898498    0.26665610496212    3.86382087179527
C         1.47463496689408   -0.23844629980267    2.67699294654994
C         0.59350268029756   -0.75498967244179    1.73517895540502
H         0.98692756510484   -1.15452753696237    0.81116174271959
C        -0.77865631603107   -0.75364132124440    1.94720549129697
C        -1.27223748114805   -0.21706935963940    3.12389644694839
H        -2.33774744104885   -0.21956211232183    3.30260801280231
C        -0.43328728949215    0.31180145497655    4.10322883629794
C        -0.94694738987437    0.91081357055870    5.33117499260167
H        -0.58530698659942    0.36950668682699    6.20725995614185
H        -2.03507574480077    0.89408774816451    5.33887446301394
C        -1.69917495442246   -1.33221678761922    0.91317345451880
H        -1.43247587887083   -0.97787445985084   -0.08128677438319
H        -2.73233640066256   -1.06140699364064    1.11698975204442
H        -1.62471197863307   -2.42001001541689    0.91006869417517
C         2.94329314382011   -0.21064687765627    2.36270242853734
H         3.09024261570997   -0.20323823970036    1.28483312288631
H         3.44470458544451   -1.09507648295916    2.75778595495004
H         3.42050407245822    0.67267139852045    2.78281228308879
C        -1.84007030556015    4.27503466394854    5.12427385612201
C        -1.69018622199417    3.51890626187839    3.94494988987310
C        -0.33105895761267    3.60536629614070    3.53652415349254
C         0.33598970179467    4.51375480780718    4.41925920993682
C        -0.58611423843942    4.91353245073518    5.40418138925230
C        -3.12698682616202    4.56772676212862    5.82777983384287
H        -3.62503898207305    5.42964625142633    5.37749377944621
H        -2.95321750201775    4.78891154563772    6.87860112167472
H        -3.80517761363382    3.71971837662059    5.76085628323742
C        -2.78960688832211    2.82501425310536    3.21386589297173
H        -3.35257768767981    3.54330672192560    2.61482069860512
H        -3.48136764178001    2.35175175468546    3.90752612846016
H        -2.38847111059394    2.06504557909936    2.55061125370060
C         0.25365243367576    3.09591002758759    2.25834617681153
H         0.16165959858468    3.84426091165918    1.46801409953332
H        -0.24886251873756    2.19003862575975    1.93255428775391
H         1.30868748010161    2.86805932668652    2.38789824018174
C         1.73770403892332    4.99592379270027    4.21136009914805
H         1.81539731985109    5.52103844173413    3.25850967231640
H         2.43567223907726    4.16044819749151    4.18862855026915
H         2.04580048874333    5.68174481187717    4.99730125631297
C        -0.39300338728724    5.92534686311742    6.49004873833656
H        -1.03885360005062    6.78777737032125    6.31868138309421
H         0.63527231092758    6.27746927444099    6.52880708519872
H        -0.64579993973874    5.50872252971553    7.46501822478384

