38
CSD_code = CEGLEG | q = 0 | S = 0 | Stoichiometry = C11H21Cl2N3Pd | MND = 4
Pd        3.51979714287141    1.91570594795003    3.75236868313208
Cl        3.49001583336378    0.74494657320002    5.66046556958674
Cl        2.20632893721477    0.43282502575699    2.71507065545402
N         3.42173849347616    3.23160097097045    2.22026793424843
N         3.10423623447944    4.47922578292951    2.59028602221323
N         4.70987059136704    3.40767262382631    4.82401194306547
C         3.16477009358905    5.31866198840577    1.53021267217853
C         3.53240055963901    4.55165483756803    0.44415733233874
C         3.68616610084804    3.24105574402537    0.92488447338730
C         2.86490762302618    6.77034521580197    1.62165182822280
H         3.53541522573902    7.26838347666241    2.32177898305581
H         1.83963100802061    6.93520241324576    1.95241711532301
H         2.98690047573641    7.22524361449489    0.64328574649947
C         4.10116933392439    2.00485021261077    0.21624298979778
H         4.22187964534377    1.20187762339252    0.94849159732662
H         5.03460900901248    2.16224589942375   -0.32147904912853
H         3.33796501798904    1.70486825173963   -0.49917305840146
C         2.81465076617091    4.75908431386961    3.97296655455492
H         2.12290065741486    3.97937481338779    4.34885047094000
H         2.33129668972588    5.73483207932409    4.04610782398939
C         4.10555007491300    4.73972065193073    4.82127818383851
H         3.84921270138559    5.06550451710365    5.83588734956308
H         4.80172315899768    5.46634243661309    4.39567337675401
C         6.16926491852818    3.31334648704803    4.61350383681706
C         6.52538489543684    1.82343115158229    4.64762566887175
H         5.95375382303067    1.27914281932224    3.87550673130417
H         6.28139905404103    1.39041478756797    5.61595478086078
H         7.58632626440571    1.68211193638734    4.45867452960480
C         6.55397941230404    3.86846845762852    3.23942122543495
H         5.99648447631132    3.34694189212329    2.46187909630715
H         7.61422500610605    3.70422535039617    3.06755915073056
H         6.36868449201716    4.93659641649554    3.15085784661494
C         6.92131474592821    4.04840887264584    5.72952665051860
H         6.63095181164693    3.65510964924818    6.70132918989798
H         6.71749957771226    5.11686927962637    5.71295204099609
H         7.99232000171228    3.90831854686514    5.61285708002811
H         4.49561520479092    2.91985732041904    5.70238101613973
H         3.67076094177946    4.88723201841040   -0.56273404206609

