83
CSD_code = CEGQIP | q = 0 | S = 0 | Stoichiometry = C30H39B9I2P2Pt | MND = 6
Pt       -1.23966261525012    3.64597880584708    6.22747842774011
P        -0.10348546538921    1.60758684216541    5.91446274633681
P        -2.00896805900953    3.16131482757339    8.49142508549466
C        -0.34936228509221    6.24295677631449    6.06234622617892
B        -1.92159467185358    5.75782566275244    6.40982159119025
H        -2.32474194862894    5.97173932337041    7.50363562553278
B        -1.47711724489459    7.40228819162682    5.63787011320929
H        -1.65548505167769    8.35822208205628    6.29296703702545
B        -0.15722046249886    7.05459421910889    4.55759738092421
H         0.77284725239111    7.75370033174621    4.40842508973490
B         0.06235239859715    5.27430007785711    4.82962392976979
I         2.10480875126736    4.49288647372128    4.74018003663830
B        -2.79514284929571    4.83784695819409    5.14022212797838
H        -3.85350648605635    4.33360084886204    5.31300453811974
C        -2.84598287916738    6.52993610783594    5.10515751568094
B        -1.75781797431729    7.23868641103580    3.91391593971866
H        -2.07746455128480    8.15670664992978    3.25618610851989
B        -0.74389555009937    5.82468820295431    3.39320893845000
H        -0.27700423097679    5.75024296565861    2.31420516362542
B        -1.45632126615905    4.34656374390096    4.12322233785634
H        -1.39600572410360    3.39419728034605    3.42004508542646
C         0.58891918483507    6.48077572858117    7.18884399942758
B        -2.50648415098698    5.69609660988396    3.64051367415520
C         1.07152583997421    7.74706052232577    7.50787743914839
H         0.74899159979322    8.60167949033958    6.93219048802184
I        -4.00990525828824    5.51263023779245    2.07636347582432
C         1.96613554830231    7.92144071387313    8.54785233415838
H         2.32913980129159    8.91236735584884    8.77891563757587
C         2.40394662755112    6.83524780834804    9.28622309701933
H         3.10830653772006    6.97379947475951   10.09279600241361
C         1.93704814021617    5.56943598265366    8.97698574333999
H         2.28183257442201    4.71351020853200    9.53962716815284
C         1.03975843344940    5.39741886968068    7.94100447758219
H         0.68137750138457    4.39698991207962    7.70067240752603
C        -4.17197809394061    7.14823049178681    5.37777506214241
C        -4.69207232812334    8.15833293058719    4.57010302071387
H        -4.12870795266520    8.52862599790671    3.72885017976303
C        -5.93824422119593    8.70364698087746    4.81855456462412
H        -6.31602020725926    9.47930506058825    4.16933434921810
C        -6.69721435130240    8.25919071116390    5.88585921368708
H        -7.66985922902558    8.68564858730576    6.08019154915794
C        -6.19521648926850    7.25783180398748    6.69852257509562
H        -6.77382259641248    6.89235539044002    7.53438387282853
C        -4.95323918028079    6.70792763390547    6.44560617976602
H        -4.59226341833252    5.92010612056645    7.08726916575943
C         1.35365063220783    1.18030830812599    6.94640089288236
H         1.73617873669362    0.19288933489697    6.69597114785107
H         1.09423934263000    1.22385946098376    8.00244269584134
H         2.13261776884209    1.91514062921053    6.74718834702639
C         0.48764952575333    1.04291503415178    4.26902427423123
H         0.77758843882514   -0.00543653181986    4.33082649814571
H         1.34035824630931    1.63738830717093    3.95111810082029
H        -0.31338293899264    1.14984282580277    3.54130066702251
C        -1.30909823264764    0.27360005919857    6.22048334132914
C        -1.04835080442647   -0.90560772634646    6.90490653352015
H        -0.06951416807757   -1.09264374924813    7.32058318079845
C        -2.04861884521221   -1.84975913769134    7.06682596480685
H        -1.84068139490603   -2.76371899046698    7.60399806428565
C        -3.31126845928125   -1.62826308637515    6.54335731622908
H        -4.08718712999055   -2.36776870014512    6.67354222039514
C        -3.57711267842160   -0.45629213465573    5.85220245682227
H        -4.56011787171247   -0.28217764536919    5.43978873409728
C        -2.58136920460980    0.48930093040470    5.69625448171366
H        -2.77653256501442    1.41407685724465    5.16477807104192
C        -2.08023656403886    1.46604921803172    9.22101691286314
H        -2.52561408174344    1.51371227193367   10.21384940900160
H        -1.07595461858717    1.05459342334857    9.29668575380010
H        -2.67652942019169    0.80862616500230    8.59455446996911
C        -1.24266034094970    4.03337482083951    9.91660505823426
H        -1.81201632903729    3.85559639451542   10.82767170543111
H        -1.17737817273208    5.10056220513702    9.71765147776252
H        -0.23175489966887    3.65266472376961   10.04952576769160
C        -3.77552289547205    3.58469778543705    8.64628243092362
C        -4.65944427885001    2.87511242661572    7.83648764595183
H        -4.27072898646789    2.11360917631772    7.17430919011852
C        -6.01403548225903    3.14183524590270    7.86921804435386
H        -6.68955739445432    2.58707385036245    7.23524226866675
C        -6.50422042753158    4.12830315230618    8.71062567370602
H        -7.56309878362324    4.33809132216554    8.73843521896956
C        -5.63116162248860    4.84985689268258    9.50589373428997
H        -6.00619004879705    5.62857842554177   10.15428634372174
C        -4.27150418681095    4.58639203536331    9.47074538511650
H        -3.60472326283710    5.17309901301076   10.08440379826582

