57
CSD_code = CEGQAG | q = 0 | S = 0 | Stoichiometry = C18H32NiP2Si4 | MND = 6
Ni        5.41832784525783    0.65062289014796   11.82429952247322
P         4.51549759169862   -0.99123445467415   13.09257942479694
Si        7.20167748346795    0.72852666394381   13.26199030235577
Si        4.30272269701131    2.25432168785093   12.99261102014319
C         6.57428834953541    1.79624962474810   14.70153456855550
C         7.31051021649417    1.94463761315322   15.86549052195394
C         6.83918447674899    2.72627438558721   16.90432533393168
C         5.61819308134901    3.37089937521951   16.78044600311637
C         4.87940171616020    3.22751915366120   15.62029462627271
C         5.34742442778334    2.44220275341648   14.57687171567461
C         5.32737303326487   -2.56849305876899   12.58027037570958
C         2.74704096359007   -1.42929530463400   12.88347844175232
C         4.60771165907729   -1.11201994023099   14.91630790404990
H         8.58278337856488    1.21802759887135   12.99554867414561
H         7.57995925803746   -0.57279056639372   13.92724721774661
H         4.03770080238550    3.63029703951225   12.50785034968436
H         2.95800284262066    1.83506063470733   13.50189883197505
H         8.26251065411124    1.44092502935398   15.95158085211817
H         7.41985624609525    2.83586672172679   17.80969406934906
H         5.24536515929876    3.98402858540624   17.58901707462706
H         3.92750922910863    3.72830440398451   15.51713555599464
H         4.72930727289741   -3.42187161516387   12.91918411120957
H         6.30237192659189   -2.60786481591191   13.07868361830490
H         2.49758787019021   -2.28907588487131   13.50700321981478
H         2.53389211205509   -1.65222914338168   11.83999174193393
H         2.14019024202686   -0.57403167894972   13.17966334386732
H         5.63351424902880   -0.97947183088145   15.25425815015596
H         4.22929746665435   -2.07995688075173   15.24777630146712
H         3.99929886165076   -0.31377554463223   15.34323933461318
C         5.50875132612997   -2.56846527117045   11.06750610029767
P         6.32029444121259   -0.99108793674308   10.55510217663460
Si        3.63545010598845    0.72760024222390   10.38584782958445
C         4.26203159636839    1.79626411549992    8.94661967372166
C         3.52585033882041    1.94459541807109    7.78261402730453
C         3.99738638883469    2.72592278377898    6.74361691470821
C         5.21844679662106    3.37042920589923    6.86746921289240
C         5.95720908366819    3.22704912465752    8.02763743462948
C         5.48903744829764    2.44196328470849    9.07118303779940
Si        6.53310321759200    2.25488032238586   10.65597176059083
H         6.79841124756889    3.63092325183308   11.14034623767832
H         7.87777048612391    1.83526646667110   10.14682623338827
H         6.90888680201041    3.72820250545500    8.13096001399451
H         5.59128099219211    3.98357547979139    6.05891730637227
H         3.41689487845100    2.83524567193700    5.83808984264957
H         2.57406523155842    1.44050464626934    7.69633626366787
H         2.25462105855367    1.21794195538441   10.65242834384742
H         3.25577659585402   -0.57324114441060    9.72054596457212
C         8.08880435249613   -1.42905047059544   10.76435248230946
H         8.33837270693981   -2.28877056661290   10.14079333927672
H         8.30201149284008   -1.65207719844045   11.80781416322215
H         8.69571320811181   -0.57379123154155   10.46826831785254
C         6.22841334867205   -1.11169259539225    8.73137201465608
H         5.20261575919128   -0.97915759747388    8.39342799939455
H         6.60689967238404   -2.07959917377885    8.39989850931204
H         6.83682939684546   -0.31336931213568    8.30458400092008
H         6.10689286203000   -3.42176902573942   10.72852911525669
H         4.53377805189945   -2.60784639254721   10.56906947565929

