83
CSD_code = CEGRUC | q = 0 | S = 0 | Stoichiometry = C40H38O2P2Pt | MND = 4
Pt        7.65154371344958    1.16975525824435    3.72787565383939
P         6.97765720385850   -0.90321441369921    4.56201617624827
P         5.51300846986622    1.78179354138776    4.43019795362644
O        13.45676222972745   -0.90843011074008    3.01296432029018
O         8.34270438393962    6.65144231782641    0.90127279563376
C         9.56603079475720    0.60436705411145    3.39590161133615
C        10.16678027261095    0.53342000770345    2.14230044819007
C        11.45238161032104    0.03985604448322    1.96859627487407
C        12.18294102214054   -0.39558956876766    3.06428019692597
C        11.60598167612457   -0.32643810373756    4.32971897366625
C        10.32346417721446    0.15966462459357    4.48396503156456
C        14.09331251001917   -0.97342453051830    1.76435810542227
C         8.03056036579343    2.93179076449707    2.80834352067877
C         9.01349863408712    3.83599264363164    3.19992701485962
C         9.15359882855272    5.07822667558675    2.59670794988944
C         8.30363689235089    5.44907095192209    1.56527371801099
C         7.31792698644402    4.55729269394366    1.15043751936827
C         7.18691598049179    3.32925454726518    1.76654140250211
C         9.33519120892318    7.57476384929859    1.26371649718266
C         5.40302692713453   -0.73730087505062    5.53632263870944
C         4.50222496145586    0.27679548398280    4.83968949666013
C         7.88746238783615   -2.23751426608188    5.38800945494819
C         7.68764740531105   -2.62843562014461    6.70634685643389
C         8.49758932684855   -3.60130229309126    7.26675034514482
C         9.51740685224442   -4.17391842863507    6.52572712206751
C         9.73383281254744   -3.77144362781924    5.21641096373345
C         8.92654585947206   -2.80524396777389    4.65134321206420
C         6.34261272531749   -1.76049590487679    3.08782536652364
C         5.83428350912421   -3.05398031514884    3.13736017489530
C         5.33393290457766   -3.63959904489194    1.98915333405010
C         5.33709340298220   -2.94015499182189    0.79193681886217
C         5.84875940267920   -1.65369640591627    0.73775369319184
C         6.35304899932267   -1.06534010153651    1.88324683488069
C         4.31604034561405    2.97872018907852    3.77921959904475
C         4.74997004448273    4.30326570254251    3.73841469824398
C         3.94885169400213    5.28163056009588    3.18557531578116
C         2.71056735747916    4.94544256004021    2.65972058786234
C         2.28241099882014    3.62896545970048    2.68272946583086
C         3.08372884697465    2.64287337885820    3.23218503087095
C         5.79595831877361    2.43330837891365    6.10569789813416
C         7.09863128032988    2.41650569902567    6.59267671715215
C         7.36711256490887    2.86504661477495    7.87303505278879
C         6.33515425874411    3.33599284515465    8.66860750991298
C         5.03675935924139    3.36327601313203    8.18281410959853
C         4.76357811048635    2.91317261846645    6.90435534447264
H         9.63136461771386    0.87592947600409    1.26438140352087
H        11.86776714246337    0.00510989540531    0.97232067973047
H        12.17975027107062   -0.67010579990245    5.17749969496203
H         9.90369078553444    0.18123846191530    5.48656017092708
H        13.55654154112103   -1.62913970322018    1.06926331074246
H        15.08232181385321   -1.38839270157771    1.95587647897038
H        14.20025247836056    0.01896177500712    1.31257424257899
H         9.70373201510723    3.57626432271523    3.99419944395216
H         9.93223954583595    5.74157166202198    2.94306781179491
H         6.65824330410179    4.85432433978062    0.34879980298777
H         6.39372527183654    2.66916570291590    1.42455767627643
H         9.22975314917952    7.89456867552932    2.30667209379148
H         9.19433326170886    8.43472362059164    0.60981657537955
H        10.34097484420917    7.16771279305029    1.11222713097190
H         4.90914180521808   -1.70953173541852    5.63418683305072
H         5.66438782694421   -0.36970001781288    6.53486262293129
H         3.64646202443618    0.54758988129609    5.46664536578661
H         4.13312965701440   -0.14528610097260    3.89829367043785
H         6.90238314627203   -2.18003202753148    7.29815305538058
H         8.33403004007608   -3.90950954649982    8.28960223015079
H        10.14900839446486   -4.92835595771122    6.97098556210724
H        10.53758735834190   -4.20601527336177    4.64118511527391
H         9.09355940700986   -2.47163022906277    3.63523088962846
H         5.84312447720442   -3.60100544486131    4.07106769740106
H         4.94121488018739   -4.64558738262999    2.02545242591322
H         4.94464622997965   -3.40351369487393   -0.10146491770156
H         5.85767993716400   -1.11303592673636   -0.19720998506077
H         6.78070192248052   -0.05866496142339    1.86051614259964
H         5.72492233300891    4.54928712301483    4.13924226809743
H         4.29095811436175    6.30528913748269    3.15594919926210
H         2.08243152011726    5.70875196698673    2.22480333067794
H         1.32073609443910    3.36627668238995    2.26559689797851
H         2.74487914449060    1.61661803783108    3.23375969913033
H         7.90000204817505    2.05898855172542    5.93935070970591
H         8.37920208666486    2.85176414979200    8.24991772728638
H         6.54173917418984    3.68907894772815    9.66835678183816
H         4.23608753519184    3.73873811257472    8.80369141517409
H         3.75306718337584    2.94308927963015    6.51820594041033

