80
CSD_code = CEGSOX | q = 0 | S = 0 | Stoichiometry = C28H41F5IrNO2P2 | MND = 5
Ir        3.47678101250772    3.36156982796685    3.07963928564411
P         2.63816009713490    3.43706915815125    0.91020751865867
P         4.09209842106620    4.05656136240395    5.21704844243574
N         4.73668053011973    1.65658722763078    2.87399962198022
C         4.81419448900623    0.40842190607478    3.31577242464789
C         5.95624995609971   -0.41123938388320    3.11078966873855
C         6.06403498092987   -1.70351701225183    3.57286067911314
C         5.01426188369595   -2.27697352767452    4.28507671167261
C         3.86632746729923   -1.52041859878456    4.50369482133941
C         3.77275248467898   -0.22833971678881    4.03217282133053
F         6.99353917246746    0.13898657238780    2.41889684303169
F         7.18265407890775   -2.41080538248343    3.34263139131221
F         5.10680727046768   -3.53849557526250    4.75130767055625
F         2.83795649912013   -2.05490013467686    5.18382660495417
F         2.62615375594927    0.46426024262471    4.25791221969784
C         1.15409763601045    2.37694944217743    0.44289971843436
C         0.03574784772262    2.80371433617178    1.39551097316310
C         1.51758919224022    0.92128602947231    0.71943000174041
C         0.68551295220442    2.57371381050934   -0.99472539128554
C         3.90730949594289    3.57121906352130   -0.48275447809997
C         4.40553275231407    2.18173248841334   -0.86477423186538
C         3.41073724415466    4.34322516174023   -1.70196206143405
C         5.05136738513563    4.36154668063951    0.16127500136516
O         1.98668616295821    4.92792823929666    0.81726558855279
C         2.62815209790461    5.18037697432083    3.10543358551551
C         2.05758804882918    5.71744723405224    1.95558811481119
C         1.59152916094006    7.02171415144933    1.91379668135628
C         1.70307076972366    7.81071551310916    3.04746431472733
C         2.28923734527624    7.31805198854709    4.20231855661574
C         2.74758461606411    6.01031272237334    4.21584940459146
O         3.36137507646804    5.50830156334194    5.35232006618269
C         3.51245606210727    3.29972602234604    6.83572510343772
C         2.02625575229770    3.02168888334740    6.59621154418850
C         4.23696980304191    1.98011697445273    7.07710867427447
C         3.66259758718029    4.24477217663753    8.02407876667472
C         5.90635864212522    4.58867678350575    5.23958295174200
C         6.80699779669087    3.35774884427716    5.26696513149294
C         6.06712745686668    5.30171075470540    3.89260106992795
C         6.25671935337895    5.55918996403034    6.36188514411278
H         2.17917347930283    2.79707688691016    3.58687156867401
H         5.57952698973539    1.88307380169815    2.34937315284473
H         1.15261702283270    7.40752235211951    1.00712579152773
H         1.33928576203721    8.82594032993824    3.02684331092839
H         2.39503778677968    7.93455923212671    5.08113757823307
H        -0.27489893915532    3.82709363354245    1.19736869247190
H        -0.82613485768118    2.15214976775387    1.26705074849824
H         0.36826727252684    2.73486931437501    2.43112545942901
H         1.88373532287379    0.82070992266102    1.73891422078593
H         0.63819033925845    0.29054664414778    0.60463309548478
H         2.28319861624844    0.56059058383045    0.03821191405898
H         1.37913382127839    2.13373130581471   -1.70675891909928
H        -0.27882512737775    2.08517606314371   -1.12916974391340
H         0.56223217288456    3.63203695247642   -1.21464095929203
H         4.62816090995920    1.59404558995964    0.02457372642824
H         3.66644954117518    1.64559602795629   -1.45502564943858
H         5.31483473985355    2.26045225229887   -1.46012964597408
H         2.71398691281735    3.76138844259896   -2.29560231731961
H         2.92426627905714    5.26776332739337   -1.39944776054728
H         4.25881196908658    4.59730279076379   -2.33753423883823
H         4.69731841179896    5.32410752714051    0.53355660182392
H         5.49100678123925    3.79728828825811    0.98290153268649
H         5.84218318708535    4.55243601813333   -0.56379952247486
H         1.50037946079790    3.93566334621007    6.32603837090463
H         1.89906849034403    2.29692281402495    5.79554001113077
H         1.57205125598370    2.61882891866009    7.49942321341215
H         4.28172908770779    1.39990875961361    6.15830825201361
H         5.24877451924657    2.13767034421576    7.44188084771266
H         3.70095480307288    1.39481780154753    7.82184456686667
H         4.69739483220209    4.33494897590547    8.34045566376159
H         3.27962463839237    5.23236319073354    7.77962980404896
H         3.09129498206661    3.85698925635260    8.86620817339588
H         6.85449493287594    2.92242963125175    6.26114533982341
H         6.44326408358032    2.59443699522966    4.58174391521332
H         7.82089222856516    3.62788467954426    4.97288204401846
H         5.77706661103183    4.64243534515180    3.07135766929319
H         5.45364329755565    6.20170431039400    3.84833995149004
H         7.10561643682904    5.59157143393066    3.73265233039801
H         5.48409683138398    6.31741954486649    6.47177221241086
H         6.38058826615071    5.04290603740480    7.30956032962349
H         7.19705451157897    6.06010879197898    6.13240771219895

