82
CSD_code = CEGSUD | q = 0 | S = 0 | Stoichiometry = C29H41F5IrNO3P2 | MND = 6
Ir        1.12838769032314   14.54951777851073   10.35109130898753
P         1.29100950889748   15.70572348669531   12.42731175077145
P         0.85198267115083   12.65594242206615    8.92361301028081
C        -0.65668935810881   15.15505600051315   10.05226984339120
O        -1.79091268134370   15.27838942612341   10.09332479819061
O         0.13969932981238   14.96004042162887   13.30354120228629
C        -0.34411725149774   13.74984642928182   12.82914216295443
C        -1.18724371748385   12.98406787547049   13.61898919100694
H        -1.44160384963810   13.31609803820276   14.61306968986070
C        -1.70155678063157   11.80509198977439   13.10352930764287
H        -2.36006721755227   11.20368022374155   13.70996593262998
C        -1.39573548617140   11.39429419762964   11.81622640021922
H        -1.81249690610207   10.48798597103583   11.40625669390092
C        -0.55102351602439   12.17712419602660   11.04428425545754
C         0.00570448818509   13.34681522159864   11.54605191238467
O        -0.27919706603281   11.81259652891256    9.73451004254800
N         2.34369926691168   15.82197038481369    9.05147531823834
H         3.32517007120462   15.56606366617123    9.12681734150157
C         2.14998158488475   16.42658152026539    7.88193717857348
C         0.94105432396183   17.04298188990125    7.47822610745956
C         0.76951636676537   17.65186438513107    6.25136165052347
C         1.81337136561687   17.71426489734477    5.33539278559580
C         3.03906691149617   17.15673852903850    5.69179583975898
C         3.18833310010807   16.54103200526016    6.91409566905320
F        -0.10887234059201   17.05762775184418    8.34079402024760
F        -0.42003704339173   18.19707371668651    5.94538771422819
F         1.64572934373746   18.30429740967163    4.13596740559368
F         4.07003099517120   17.20680124748859    4.83264534824539
F         4.39024874346626   15.99173684479752    7.23054357786459
C         2.83055392781206   15.33294201796738   13.48091072537735
C         2.81735817989201   13.82652283929844   13.74965475405024
H         2.71988601930271   13.26365138880393   12.82550717011234
H         1.99453447226049   13.55438068049627   14.40753286600055
H         3.74854819464800   13.53169593834598   14.23023441796359
C         2.82348090026337   16.04698987041769   14.82941562666844
H         3.61280413079961   15.62968382618253   15.45422651779319
H         1.87598734591547   15.89735686099826   15.34141936280283
H         3.01869972618571   17.11015767321424   14.72392530272132
C         4.08051201408284   15.70169381861574   12.68904108394690
H         4.13943418299900   16.77087071014899   12.50842156928609
H         4.08203548756180   15.19353513648991   11.72872329282156
H         4.96934728691674   15.39935011223367   13.24050409880259
C         0.74312250876785   17.49975553005970   12.64338051065051
C         0.28336121536300   17.84079403787128   14.06039790331645
H         1.11156376101931   18.03363739208091   14.73255417793795
H        -0.32682407519121   17.03844872590774   14.46837448046569
H        -0.32736792110220   18.74203174861615   14.02656650171314
C         1.87573428884991   18.40417238987854   12.16793848576362
H         1.50984858064233   19.42206863805802   12.04241708632571
H         2.25109551816814   18.05431547456152   11.20658234927001
H         2.69729069024010   18.43102567409159   12.87955457629949
C        -0.45185257508951   17.67965862595597   11.70817812048759
H        -0.81230363155388   18.70611263129062   11.76008569838343
H        -1.27089327133249   17.02306868004933   11.99689252443842
H        -0.17297329105716   17.47959943671089   10.67752840951362
C         2.28190837473762   11.40318588544136    8.89998825575063
C         2.46048045898071   10.91905255750591   10.34057058046465
H         3.35771459822703   10.30693711825336   10.41259415827969
H         1.61109177480426   10.31731585166051   10.65770847501654
H         2.56523352929524   11.75538931897383   11.02612460763366
C         3.55041470162549   12.11094390212823    8.43445283318559
H         3.76495265587303   12.96284371392308    9.07404512486287
H         3.46058868266626   12.46753924750822    7.41245494032950
H         4.39515129352201   11.42580049027566    8.48239911120985
C         2.00280625279639   10.18045622427979    8.03062093922582
H         2.04293674792104   10.41876515486559    6.97182941117922
H         1.03568606646676    9.74639771184395    8.27282085032023
H         2.76689879256079    9.42823552614980    8.22535111261116
C         0.01432715104185   12.74185342292607    7.22857815214231
C         1.04197177466394   13.18432738168763    6.19079242616913
H         0.53722423010426   13.47323563762776    5.27002956451563
H         1.74190982107024   12.38832074722827    5.94983914733587
H         1.60131580976910   14.04603362714112    6.55338927215998
C        -0.68597826377604   11.44525438040337    6.82199793661032
H        -1.21753830497986   11.01450563162828    7.66716328277581
H         0.00140216738988   10.70857347516542    6.42257216022615
H        -1.41596172983016   11.66730996246894    6.04472294292535
C        -1.05488926676442   13.82660212042939    7.35432599532554
H        -0.61251879336830   14.77983819717923    7.62860207252660
H        -1.80122246439867   13.54931460029620    8.09711366449089
H        -1.56426543181801   13.96049633821605    6.40099342722709
H         2.47584315706954   13.93094746075433   10.72093448321473

