66
CSD_code = CEGTUE | q = 0 | S = 0 | Stoichiometry = C33H29N2RhSi | MND = 5
Rh        4.82110278623295    4.17432591193970    2.24332096087981
Si        4.22974015636114    2.38708064353127    3.53245246306592
N         3.13122876461879    3.65509736077677    1.06825887939120
N         5.88896569567749    2.66198371122094    1.07164711467492
C         2.88189304992798    4.30019844272849   -0.04788617166422
C         1.70957925385993    4.13105857823532   -0.79367009556228
C         0.75698117946975    3.26271323422358   -0.33357574902337
C         1.00071188801189    2.53909567275338    0.85047810346900
C         0.07082544213867    1.62826483825713    1.39021734733135
C         0.36178881775871    0.94827210081573    2.53921058420815
C         1.59170291090889    1.14214183858437    3.18506385670534
C         2.52718719405024    2.02184818240028    2.70468094831350
C         2.23047949037533    2.74966428335845    1.52840117441686
C         6.42195267429984    2.96079447281761   -0.08862337846817
C         7.23631639477710    2.08274270677781   -0.81656228317037
C         7.51576608198076    0.85259731229878   -0.28733216146977
C         6.93761692610653    0.48810567104359    0.94572385004624
C         7.16548494363029   -0.76329497701890    1.55339001089041
C         6.56226282936415   -1.07022815325494    2.74084304303757
C         5.69270576298226   -0.15352724123095    3.35094121058599
C         5.44080778221487    1.07750028145968    2.80225837893853
C         6.09184722037118    1.42695216581852    1.59623280138573
C         4.09872514497831    2.11552766714855    5.43039545593972
C         3.75502895356528    5.60477089933562    3.34971864116402
C         2.31684746619776    5.57358193009291    3.03463987669508
C         1.42398935977133    4.78631992514971    3.76871015361060
C         0.08560902912737    4.72170176812838    3.43913004271193
C        -0.40860326859868    5.44940270193668    2.36805352623945
C         0.45243823814353    6.25671988407210    1.64373141394156
C         1.79119541089717    6.32210385040563    1.97662711079182
C         6.55219582358205    4.76361941203177    3.23626037198306
C         7.27649100079273    5.16432698308507    2.02221828320567
C         6.79560731133136    6.21278143247308    1.21907589390797
C         7.42058612233413    6.54847907904493    0.03176645293034
C         8.54678189387649    5.85819941184582   -0.38736215782695
C         9.04315010492296    4.82707502613184    0.39621871059274
C         8.41696401762249    4.48239708520773    1.57693634199477
H         3.63542538756512    5.00670711044204   -0.38358418150290
H         1.56551432908912    4.69774539750674   -1.70044149081358
H        -0.17671227988241    3.12251258488192   -0.85903580624221
H        -0.87042454125133    1.48354204481624    0.87959880225491
H        -0.35369845075699    0.25380255832830    2.95579583376325
H         1.79883825574027    0.58442671489797    4.08605265152427
H         6.21922285691203    3.94931849476193   -0.48546815341357
H         7.64434912467194    2.39748277129830   -1.76427120217268
H         8.16488170568036    0.15410519340701   -0.79644180908081
H         7.82097395444849   -1.46801671453232    1.06170963124349
H         6.74249766567043   -2.02650256847890    3.21064866333404
H         5.21165452958359   -0.43163157166434    4.27632248458618
H         3.77026815009687    1.10744020966210    5.66121833499871
H         5.06007442831756    2.27411503382813    5.90440384643105
H         3.39133412015818    2.80659327555332    5.87215537662785
H         3.90825567280581    5.47663797037387    4.42448103973312
H         4.17804752823750    6.57153104895434    3.04638809084991
H         1.79979917485970    4.21384160011093    4.60438015240597
H        -0.58174385478366    4.09910184153782    4.01940265652739
H        -1.45575179121111    5.39582653081128    2.10641269963679
H         0.07478630436267    6.84058210802005    0.81469742003869
H         2.45073640021935    6.96436377017263    1.40615514391786
H         6.36509712606856    5.61176589594783    3.89845396991461
H         7.09537316066276    3.99299499616984    3.79055965308424
H         5.94284270311341    6.79295837366201    1.55555254971577
H         7.03258028578477    7.35927473945237   -0.57103550907769
H         9.03794718890267    6.12620933731967   -1.31174960848510
H         9.92750315316143    4.29023998043930    0.08054195316622
H         8.81067385811006    3.67333717869057    2.17830580117735

