82
CSD_code = CEGTAK | q = 0 | S = 0 | Stoichiometry = C29H41F5IrNO3P2 | MND = 5
Ir        2.27525595438522   15.43153271338548    2.07277016143041
P         0.52726693297931   16.87339026283841    2.71687179008812
P         3.32963181924541   13.49237292103228    1.24418117467086
N         3.95250937756463   16.81240272854763    2.00704230255751
C         3.79169936138488   17.11196263818120    0.75729560016518
O         2.81870844757217   16.62684730974290    0.13019715782361
C         4.74344793962552   18.02201488534514    0.01650833102573
C         6.12286750500767   17.86675080311405    0.12040882406673
C         7.00552067936609   18.66904675707756   -0.59270957278093
C         6.50815757514457   19.66083868475895   -1.43226472906585
C         5.13304461083977   19.83315815467241   -1.55337612279459
C         4.26629842747276   19.01158101417126   -0.83984446190737
F         6.62867720211640   16.91032323354718    0.91050775408847
F         8.32445842476566   18.49020697814716   -0.47703934546772
F         7.34558024874121   20.44113408228408   -2.11714252509773
F         4.65031125273892   20.78731374705258   -2.35398684698618
F         2.95556341416706   19.20900008369723   -0.97197295928222
C        -0.10564057782588   18.23032033882310    1.56264355840260
C        -0.10308298033937   17.57678653665359    0.17805463697919
C         0.87083113102488   19.40013138579733    1.58844626899636
C        -1.53401259536568   18.68384457979892    1.86316963875714
C         0.50865973348271   17.42257022029101    4.53047321646751
C         1.88523907021740   18.01661467265680    4.81938226279571
C        -0.58600619170771   18.41517229803487    4.90591697104099
C         0.31098775091789   16.15345523435501    5.35983422578316
O        -0.78327652791753   15.90636895577043    2.67320013667400
C        -0.59362808350504   14.59983001495667    2.25937849243367
C        -1.68480463603820   13.75020471075237    2.16689822031550
C        -1.48468392441324   12.43764026425510    1.77231606341302
C        -0.21308089196463   11.97334539542367    1.47903306487969
C         0.86124019402836   12.84357091357054    1.57799160738915
C         0.69525456977336   14.17574898563895    1.94726199092343
O         2.13745802020633   12.38199009897945    1.30706679681513
C         4.63106147788737   12.67526888006918    2.34792995897443
C         3.89440644983719   12.20815446227720    3.60338381615469
C         5.36142762664115   11.48077159482556    1.74443088387473
C         5.62698845665007   13.77250798076187    2.71826085163958
C         3.74610234379282   13.31572618323370   -0.59742819902131
C         3.87750154469069   11.86232135553821   -1.05435052606464
C         5.00454068182239   14.10970700778117   -0.92707754569414
C         2.54018917792618   13.92793907140687   -1.31702982951342
H         2.40407007492049   14.91939233345540    3.49080773957541
H         4.74923000698011   17.20285662099978    2.49069126577950
H        -0.77520567934800   16.71944758079008    0.15699497006571
H        -0.43605644105004   18.29147615504717   -0.57336414171805
H         0.89328334754267   17.24753437020550   -0.09963280920942
H         1.89130572522733   19.04063078312617    1.47480348852225
H         0.66042279322290   20.08348450472898    0.76717530976419
H         0.80275000078205   19.95666998384898    2.52138455034832
H        -1.57860088046693   19.40869384908423    2.66863483401717
H        -1.94974594458098   19.15590171525523    0.97350891423656
H        -2.16111011972183   17.83173176884461    2.11475781135749
H         2.66023531142902   17.29733175151481    4.56255944476332
H         2.05089224954427   18.92203048646346    4.23996108685213
H         1.97455114744346   18.26574082490523    5.87563131046111
H        -0.41283511367354   19.39171097319129    4.46206424677888
H        -1.56237765662142   18.04582540176593    4.60427609025432
H        -0.59354549108931   18.54270105454133    5.98848229682737
H        -0.69720791746350   15.76649838866831    5.23278971378474
H         1.01516559805071   15.38065962977337    5.05798492106283
H         0.46673386603044   16.37169707412172    6.41483138091140
H        -2.67064712047177   14.11587526047870    2.40761303400939
H        -2.32746834151825   11.76849139754622    1.69772846490691
H        -0.04808020253493   10.94956152505938    1.18194712669766
H         3.28748771541844   13.01239372250086    4.01499611008837
H         3.24203624703964   11.36884835321580    3.37497926142647
H         4.61212708194864   11.89372158957858    4.35895700427081
H         4.65665640592334   10.73340671011109    1.39049362195331
H         6.01655421815915   11.77932089401539    0.93052357773764
H         5.98200824008331   11.02070425220747    2.51350007344989
H         6.13715081938633   14.15972796911924    1.83915483945983
H         5.10635005062970   14.59717371102782    3.20028686886657
H         6.37760740016098   13.38486033795286    3.40510615963625
H         3.12663397323454   11.23882856515503   -0.57484305714730
H         3.71603923630049   11.81310503771962   -2.13091907217462
H         4.86176792664000   11.45399235747092   -0.85236593236799
H         5.88250891840042   13.69039352867322   -0.43988084768815
H         5.17773348127797   14.10364121174889   -2.00297634318205
H         4.89451846821040   15.14282527663062   -0.60814593589080
H         2.39619662027946   14.96491196562989   -1.02947936716230
H         2.69398956840850   13.89818924868947   -2.39545605126893
H         1.63160342293455   13.37214369586661   -1.08809505501642

