44
CSD_code = CEGZUK | q = 0 | S = 0 | Stoichiometry = C15H17N4O7Re | MND = 6
Re       -2.08332405118038    8.66047310724403    7.40154793959146
O        -2.83272374699933    9.56178925420439    6.23014417428913
O        -1.61422675350516    7.31106842381086    8.92044503613770
O        -2.09159409209339    5.68007432485433   10.38161198750120
O        -1.05706537977153   10.00557778021354    8.48342961392645
O        -0.35359563763930    8.08525743587317    6.56138634216460
O         0.76699918590948   11.16595345331101    8.90407995361510
O         1.78430982833604    8.38899503885679    6.12778646825669
N        -3.77212827194308    8.87266366685396    8.68829350898454
N        -4.39930384580785    7.77759706441527    9.16753643055701
N        -3.03956997157249    6.88902825316931    6.69382090766501
N        -3.78735276902044    6.14123109806884    7.53244784871208
C        -2.32959479166607    6.46441726891076    9.50381774317594
C        -3.85877078596988    6.46883845668556    8.92881962890823
H        -4.45003612973119    5.71982590938773    9.45706949169704
C        -4.35713087479234    9.94342913400861    9.21407239281691
C        -5.38160347022562    9.51865462262314   10.06748605653143
H        -6.03697886338214   10.14062143576802   10.64086305471119
C        -5.37555742741918    8.13781200508457   10.03235378343999
C        -2.98999503529242    6.26492656551131    5.52177513473291
C        -3.71647616854909    5.07299396181147    5.61959963958603
H        -3.86435623406644    4.34770151452814    4.84677596878228
C        -4.19782601961261    5.01071129692122    6.91287851658110
C        -3.91637473592617   11.30927691801453    8.86296281035764
H        -3.80041694468320   11.38311082356447    7.78161640781398
H        -2.93794883755132   11.49794303420572    9.30267957868936
H        -4.62623989751438   12.04914172160210    9.21904574116133
C        -6.22021206669483    7.15969233909538   10.75904800772170
H        -6.73064756889402    6.49063683581811   10.06660797469266
H        -6.96754802853429    7.69261727925296   11.33963947247640
H        -5.61698425280021    6.56031759689859   11.44122749312494
C        -2.26611006884688    6.84580749495611    4.37204738248811
H        -2.50616916268809    7.90626703042488    4.29455265889425
H        -2.52353125163932    6.33072328228550    3.45172681576607
H        -1.19319610090347    6.77219355838554    4.54488334617644
C        -4.99977197689108    3.96035694697511    7.58505446560388
H        -5.25223553802129    3.18658326689285    6.86634428592604
H        -5.92336243646268    4.37050862277219    7.99233226047886
H        -4.43397403296883    3.50469213584397    8.39751385639680
C         0.08158163821636   10.53217017866935    8.13863699933122
C         0.48238052995183   10.32987328340225    6.67295689274718
H        -0.34293396065309   10.66513187632349    6.03560511708698
H         1.39630223234772   10.88153774253310    6.45654484011196
C         0.70469376715178    8.83197695996700    6.43703197059059

