69
CSD_code = CEHFOK | q = 0 | S = 0 | Stoichiometry = C33H30FeN2OS2 | MND = 7
Fe       -0.07812174318766    2.63700544680198    3.21077341711945
S        -0.32896894261012    0.42907658477004    4.00599552705839
S        -0.71162629095586    1.35706454790835    1.31136549967045
O         2.61722140315725    3.14755276092708    3.06553825598467
N         1.48847089933351    2.83583713897879    3.08685809776183
N        -1.52552953067639   -1.04732174964998    2.12728772575922
C        -1.25148480514564    3.48922941428899    4.78024764295358
C        -0.47943590633254    4.54040873841745    4.16599260122426
C        -1.20358696216496    4.37817005636856    2.92641159909945
C        -1.99128060965891    3.28351047999049    3.54178015946005
C        -0.92512279253421    0.09738832776586    2.43959956107781
C        -1.73176975423975   -2.07794332512080    3.12293395880410
C        -0.55167370955317   -3.04319346495913    3.18273551206566
C        -2.02655168048016   -1.28205325753864    0.78877468028107
C        -3.45482663852983   -0.76964797549488    0.62851660985414
C        -1.34035387937631    2.98401927502278    6.13905964896164
C        -0.17384876244062    2.66185758657604    6.83607725895497
C        -0.24495869052779    2.19332965266755    8.13209440402965
C        -1.47633586664073    2.04681739242529    8.75323817804640
C        -2.63699575333649    2.37057852297414    8.07066949206215
C        -2.57477151362853    2.83502983113039    6.76986358867018
C         0.52093939169502    5.48148738319265    4.63394873890921
C         0.60566993380274    5.81815420771073    5.98645274495224
C         1.54586237522207    6.73321226216154    6.42011281176171
C         2.41302775930690    7.32624460510758    5.51754197136599
C         2.33398216824448    7.00139278663951    4.17173581518831
C         1.39716793946255    6.08982545355455    3.73003666445544
C        -1.36468200373133    5.22410601130505    1.75980596811836
C        -1.27215790182392    6.61215575425603    1.89462283962445
C        -1.45039086165534    7.43443551852885    0.79907779597407
C        -1.71859198490302    6.89138654797999   -0.44691724308070
C        -1.80949622579747    5.51574755419354   -0.59163269021204
C        -1.63796317974009    4.68732856319409    0.49936997807324
C        -3.26606169853841    2.65976800806343    3.24417079050205
C        -4.10591381708676    3.16162240830297    2.24740102154327
C        -5.29916181785549    2.53062023071952    1.95392347934634
C        -5.68146064682986    1.39261364310930    2.64528928222903
C        -4.85821211443710    0.88877722410457    3.64024994307198
C        -3.66393422289705    1.51176395756665    3.93873730723280
H        -1.85770114279518   -1.59572217378292    4.09574639810249
H        -2.65106819028829   -2.61081895093983    2.87069116244893
H        -0.38951725046564   -3.51562369408726    2.21658756917150
H        -0.74284172504057   -3.81523459093055    3.92248569883757
H         0.34968268346691   -2.50577939429319    3.46469766106556
H        -1.37185378380969   -0.76666815015923    0.08156030868123
H        -1.97981044387372   -2.35593564429177    0.59518970017411
H        -3.48619572141427    0.30360867554320    0.79600850732112
H        -4.12065718502166   -1.24819574138548    1.34287828149522
H        -3.81049539131274   -0.97734290638574   -0.37644855543819
H         0.77816319338966    2.76159935029159    6.33302175659300
H         0.66118356469946    1.93714439814944    8.66076457932644
H        -1.53018465687908    1.67919371118022    9.76727757368993
H        -3.59728357022362    2.26003281675719    8.55314130243073
H        -3.47908589361985    3.09811865271822    6.24058816029520
H        -0.07419875816651    5.36389278680958    6.69204053118019
H         1.60215501409633    6.98457027587596    7.46928185448776
H         3.14949724164518    8.03741868672611    5.86083668423391
H         3.01107495371902    7.45801743693226    3.46513344102187
H         1.34540277734126    5.82107053763242    2.68481755751371
H        -1.07457034625230    7.03922836466196    2.86691734123631
H        -1.38022809573859    8.50586689421213    0.91861602910424
H        -1.85402018493058    7.53701574981110   -1.30191661040448
H        -2.01254469679182    5.08644071559552   -1.56171750660312
H        -1.68697043133308    3.61544523656703    0.38066497797830
H        -3.81958096431536    4.05228064504036    1.70921338605444
H        -5.93715355451283    2.93106131800799    1.17926792690103
H        -6.61429689172158    0.90156596949137    2.41061039375521
H        -5.14851981215709    0.00159884191658    4.18547521692262
H        -3.01925230060829    1.10389207840086    4.70422803443970

