42
CSD_code = CEHFIH | q = 0 | S = 0 | Stoichiometry = C17H17CdCl2N3O2 | MND = 6
C        -5.43400397092338    3.75911539887072   14.41345068932212
H        -5.88893614727402    2.89697498422481   13.93800082632474
C        -5.58423492124355    3.98315440387865   15.79180584265983
H        -6.16886994146959    3.29710078820889   16.38441402557040
C        -4.97576628453170    5.07163446065370   16.35558184593979
H        -5.06092672696797    5.27814543340243   17.41333710435378
C        -4.22530427223262    5.94658783408511   15.54245765022776
C        -4.14592657265397    5.64357819874552   14.15722132750930
C        -3.42822631569880    6.52563305366465   13.29232800880026
C        -2.81164306905278    7.63964366503753   13.82634870938041
H        -2.25186199675273    8.29481076438618   13.17458633300268
C        -2.87996159438236    7.91401041064637   15.19635152722349
H        -2.38293606104508    8.79290916298214   15.57965718779107
C        -3.57534967117591    7.09351645744929   16.04240898577074
H        -3.64246126623673    7.31238074297582   17.09770723896955
C        -3.61872266985849    6.94867383480429   10.99843279123940
H        -3.88640775765293    7.99952985250329   11.12636683296681
C        -3.57812601651442    4.54213655887866    8.31965619837385
C        -3.64431431459105    5.29651351722552    7.14328375446625
H        -3.71310473644726    4.82834261083981    6.17546695190532
C        -3.64380139027449    6.67528135830206    7.26098373694535
H        -3.69666035146320    7.28722442715236    6.37288283755911
C        -3.60239373481026    7.26598880657379    8.51385637286504
H        -3.63723171125509    8.33698199615853    8.62793764688478
C        -3.55342684369886    6.43865185957286    9.63214591805638
C        -3.88448717997927    2.44612308911999    7.24218061199329
H        -3.97972329969436    1.41685264311670    7.58299029574566
H        -4.83057346985251    2.76466021307472    6.79758534787844
H        -3.08161871652949    2.51661194774276    6.50114341391165
C        -2.45137006073854    1.70433234406180   11.39056414819048
H        -1.57523413446185    1.16563249638328   11.76774017255157
H        -2.44458434053985    1.70434776104897   10.29805033949617
H        -3.36139695221110    1.21502776872124   11.73299260437727
Cl       -6.13012456966285    6.16237779053715   10.75111813431672
Cl       -5.87071997015919    2.22608514547014   11.08850686393647
N        -4.74906112942543    4.55632018263151   13.63273009758813
N        -3.34247448337879    6.16757844814040   11.96931968463789
N        -3.49851753586362    5.10933903107238    9.51383931973672
O        -3.58356353783755    3.20101984398361    8.39847473600740
O        -2.48129656131142    3.02655029709339   11.90672800592544
H        -1.75412957115848    3.52207784757461   11.51257295153923
Cd       -4.67972614856302    4.22064256997759   11.33339292748883

