53
CSD_code = CEHGUU | q = 0 | S = 0 | Stoichiometry = C22H19F6IrN2O3 | MND = 8
Ir        4.31708850774785    4.13504930676888    9.10445109118922
F         6.78774178317540   -0.61130320622936   13.57226983173252
F         7.19813735115871   -1.52024934461092   11.66813269110378
F         5.26346401994797   -1.75258534975643   12.57277854105523
F         2.84245630908395   -1.44174217323522    5.48432583585374
F         1.38693471057438   -1.74321707211335    7.03651550269358
F         0.88996997273125   -0.55925340192075    5.31112133238241
O         5.80939563652128    3.93621458298547   11.75443820475105
O         2.22827093364391    3.96162086105816    6.95410335833551
O         3.19542900779369    4.40968313819671   10.45103359887927
N         4.94083881583260    2.53717850886508   10.22475168801150
N         3.50252736284286    2.55474483932612    8.14841521461335
C         5.07950161622427    6.32847023204274    8.97206476359733
C         6.18162235062865    5.38392286162865    8.98662531653320
C         6.12551220911016    4.60933657054781    7.76716222414228
C         5.01088686504572    5.05190419755596    7.03717412159478
C         4.35008892868813    6.11606740796976    7.78875279230503
C         4.89367352936510    7.39438941677974    9.99942854821434
C         7.35689493961892    5.50536832242590    9.88635445084922
C         7.18556551080526    3.66531362179619    7.29163989644764
C         4.70662765144324    4.70906629307088    5.62029571924079
C         3.20340565921791    6.90372850374217    7.26940059881116
C         5.60643219755199    2.78234040981517   11.40676267847214
C         6.04596125173393    1.61010404495954   12.12783568784316
C         5.78055022414605    0.36447865478913   11.64926613974937
C         5.06331704811497    0.17645978701994   10.45221139684671
C         4.63972047622780    1.30006383604316    9.77956063838309
C         3.80089072076419    1.30728108694301    8.58447819790696
C         3.28112024352364    0.19592515770203    7.96287271442915
C         2.39112042974876    0.39487797062759    6.89009936298498
C         2.01526631615832    1.64532550318359    6.50610637542757
C         2.54404304776237    2.80122176465705    7.18588142987617
C         6.25326272903866   -0.86807982739295   12.37516440727889
C         1.86680082229702   -0.82742711167138    6.18249551778380
H         5.60068351765819    8.20677067988706    9.82180711928175
H         3.88471453898550    7.79516086645246    9.97056343033861
H         5.07481890348265    6.98844220580398   10.99227658089937
H         7.06021951492904    5.35530945301284   10.92345663439708
H         8.12770439778098    4.78222063239142    9.63531130727537
H         7.76597842900704    6.51256892809344    9.79592947301892
H         7.61751873111753    3.11015122817773    8.12183125294034
H         6.78058103368721    2.95277792641518    6.57642201500633
H         7.98550870387257    4.22140718297883    6.79966013658565
H         5.32126373351109    5.33584770623954    4.97026978535382
H         4.93877843003627    3.66847477949663    5.40089365797184
H         3.66093567306037    4.89013049159216    5.39207482614488
H         2.39569943362995    6.22949738292129    6.98848014054448
H         2.83586665593799    7.60167622047280    8.01564377656318
H         3.50774641483928    7.45825004643866    6.38070285991978
H         6.56998729218600    1.77305453369607   13.05590173090197
H         4.83950205643228   -0.81383477836881   10.09815877725007
H         3.51678719007754   -0.79779780016658    8.29937358760565
H         1.30358617150634    1.82011292089671    5.71537303868063

