79
CSD_code = CEHGIG | q = 0 | S = 0 | Stoichiometry = C35H35F4IrN2O2 | MND = 6
Ir       -2.98427548478000    7.29938862450591   -2.80820668951683
F        -2.67113789168174    4.87067873314470    2.02211005705860
F         0.56248470545732    8.08411466311683    0.99784984007390
F        -5.46536160461391   11.70418610901035   -0.86683036791019
F        -8.09166492614099    7.93370904615230   -1.71393572588219
O        -1.46953249632216    5.99669970140063   -3.71133447432080
O        -3.55026040409878    7.74298925893819   -4.87883469845016
N        -1.52386815931943    8.65613499694430   -2.70563055400791
N        -4.46086363810102    5.95763799751899   -2.85760059284932
C        -2.32651150979611    6.92390377993457   -0.95081599981104
C        -2.81743963414769    5.98933535050630   -0.04667572861477
H        -3.70177899920263    5.41082727818407   -0.26506984970967
C        -2.17694493594655    5.78398685484542    1.15982990546127
C        -1.03968315070406    6.48328848287596    1.52029094936552
H        -0.54775465610208    6.31327688903450    2.46343053821715
C        -0.55327534450554    7.41288365610343    0.62396409355404
C        -1.16526800700991    7.65725487029440   -0.60431146301606
C        -0.73128027019562    8.62339970640090   -1.60852106396478
C         0.36713132300107    9.46890163194595   -1.50622300765003
H         0.98236456090118    9.42363262173758   -0.62604859496947
C         0.68292483256112   10.37024305079861   -2.51773247999040
C        -0.15798352810315   10.38089951873792   -3.62744471941538
H         0.00391259914274   11.04800934577661   -4.45648949303159
C        -1.23510318007854    9.51699530662165   -3.67360076640427
H        -1.90297577598466    9.52185495359604   -4.52397348859281
C         1.88546250766336   11.28104835029518   -2.36586492464513
C         2.07921741061411   12.19717634107124   -3.57669607763978
H         2.95478620793726   12.82313056089364   -3.41973279032889
H         1.22108644811537   12.85078372556832   -3.71493731557716
H         2.23910368114859   11.61934582598704   -4.48418115273860
C         3.14441948585063   10.41823659305495   -2.20049922299341
H         3.08221273283746    9.79040524727176   -1.31644326822523
H         4.02029226141704   11.05562029325850   -2.10445303158938
H         3.27912626967428    9.77586485831034   -3.06830694136858
C         1.68550887857396   12.15536080985629   -1.11969467702529
H         1.60871200591658   11.55185906875126   -0.21993005333185
H         0.77698070381735   12.74638755235100   -1.21435486220433
H         2.52745499088724   12.83390997104628   -1.00435020219395
C        -4.47021535010534    8.42912319431693   -2.07356610022972
C        -4.40476890729353    9.75197143393322   -1.65217704367575
H        -3.46488342637264   10.28065300567729   -1.61316937093042
C        -5.55257689652875   10.41921798727554   -1.27072384219720
C        -6.79703540724445    9.81647716256868   -1.28773036058105
H        -7.68553025818734   10.34727842173016   -0.98898947905263
C        -6.86212969304541    8.50238933055935   -1.70377479652469
C        -5.73252212343361    7.78696793835771   -2.09747758624163
C        -5.70212720802693    6.39776978328880   -2.54393819649948
C        -6.79816038687679    5.54914922389178   -2.64532575450566
H        -7.77408179287181    5.92215722377720   -2.39295044268488
C        -6.65562017600434    4.23040453847965   -3.06473829202944
C        -5.36409611807472    3.81066601773855   -3.37216301983019
H        -5.15601931518748    2.80675387193426   -3.69996052332388
C        -4.31308296423831    4.69949808931699   -3.25341909393939
H        -3.30329180882138    4.38472266627905   -3.47818540318115
C        -7.87486560321773    3.33374274689817   -3.15521804300511
C        -7.52701972576544    1.92406620957460   -3.63976247645076
H        -8.43344151907583    1.32474921473243   -3.68796659729700
H        -6.83780077290665    1.43355783293274   -2.95631427750400
H        -7.08820915202248    1.94835587947945   -4.63468787713480
C        -8.87579130181335    3.95514547897052   -4.13954735389985
H        -9.74817685371848    3.31300256136064   -4.23563910650427
H        -8.42049392089996    4.06716827145124   -5.12140687711328
H        -9.20867086005908    4.93270457806947   -3.80315248207146
C        -8.51173804253848    3.22733241632043   -1.76227095179476
H        -9.38264612871907    2.57731006018314   -1.80190927664129
H        -8.82859691471222    4.19928839240110   -1.39544625062274
H        -7.80114195314334    2.80859905547411   -1.05279946255226
C        -1.25152965733532    5.82823907895544   -4.93634619050995
C        -1.95785601931826    6.38271566520129   -6.00781981157140
H        -1.63793613090125    6.10053664875789   -6.99991654909303
C        -3.03720236358555    7.26689060574056   -5.92130877685648
C        -0.10100638600419    4.90586148514799   -5.29955949917909
H         0.37069328670050    4.53446184359615   -4.39321761421300
H         0.63416239697835    5.44463319756951   -5.89366219927275
H        -0.46542139279679    4.06633108761178   -5.88820742658053
C        -3.64484614345746    7.71221916425881   -7.23997345209026
H        -4.46173141608305    8.40433572523427   -7.05133455582498
H        -4.02240873599900    6.84982213203103   -7.78537383802321
H        -2.89090086600004    8.20026915308725   -7.85432085453238

