73
CSD_code = CEHHAB | q = 0 | S = 0 | Stoichiometry = C26H33BFeN6O6 | MND = 6
Fe        5.60610739810545    7.71740496379386    3.93568373732058
O         4.23409520906651    5.79944915565345    5.54523284442682
O         8.03127134245967    7.31775987748140    2.58288997009759
O         4.94184313514910    7.82611546123363    6.69503109531147
O         7.12679986857242    9.71442555441940    2.50726742750624
H         7.63832311052554    8.86167245211684    2.30546877123184
O         3.05250568137610    7.91274795804784    5.16088331862274
O         5.99717273378459    7.39260027661491    0.98813124246354
H         6.91482067630228    7.31053364457467    1.38591856482637
N         5.29394247104446    6.02857844079435    4.73137032684613
N         7.22470776794050    6.83600088044933    3.49903065942386
N         5.64051756557406    8.38850324468802    5.68828342101893
N         6.48439587859214    9.37485922799940    3.67232162219096
N         3.74912004168082    7.98876007048272    4.01059491963581
N         5.15728331094587    7.58982849057338    2.05324419925350
C         6.26451342032198    5.16890654631993    4.70743342292635
C         7.35180351433057    5.60371859392659    3.90309944389785
C         8.48348279055544    4.69737957700417    3.53084414953005
H         9.40022749507732    5.28721738139359    3.45938392054538
H         8.29075982009682    4.28249520959612    2.53575534676734
C         8.61544797464799    3.57044527879214    4.55195273460869
H         9.34749722544935    2.84274184770776    4.19775269868218
H         8.97447407230424    3.97600420600490    5.50001936575567
C         7.26549962500668    2.89144203296186    4.77214312070244
H         7.38654537560995    2.01328219729289    5.40863186267546
H         6.87086698999661    2.55754331380110    3.81018307633739
C         6.27537173207739    3.85614198590724    5.42305282483661
H         5.26416857757284    3.44467152567435    5.43175393004967
H         6.55671290425587    4.03929410226957    6.46522990806287
C         6.11696536995835    9.58639646192324    5.88509014558931
C         6.69537500559805   10.12838491483130    4.71275314523241
C         7.44304062956184   11.42164889520351    4.70602104828810
H         6.84195679603900   12.16318030561870    4.17060187922073
H         8.36838815263644   11.29669925738811    4.13790872072193
C         7.71743073847673   11.89182680877546    6.13271713796412
H         8.49842266797853   11.27321372412927    6.57899819362662
H         8.07492517694982   12.92234571002680    6.11254769814980
C         6.45009909930708   11.78850432184887    6.97949933753816
H         5.63661282124167   12.31298323426220    6.47423528398727
H         6.60514337836245   12.26276511954197    7.94964851793750
C         6.06922690388735   10.32396614518678    7.18390257800267
H         6.76285371770733    9.84534304116458    7.88238814240338
H         5.06941943736575   10.21915913869514    7.61335710102481
C         3.08940346986595    8.03283232827499    2.89146380808584
C         3.92581052327737    7.87783847951993    1.75395678858983
C         3.39958736522794    7.95946120214650    0.35742754192420
H         3.43041101178928    6.95645837669525   -0.07983649385115
H         4.07520251580358    8.58049860945196   -0.23612074968146
C         1.97421713297889    8.50423208705085    0.33835700972179
H         1.98731278030407    9.57453716914875    0.55288575202588
H         1.54614154914117    8.36551421688079   -0.65547002493000
C         1.12234328751591    7.79199112790612    1.38643277885722
H         1.19883769989860    6.71279583234395    1.24055162786978
H         0.07391756508464    8.07283517233072    1.27680296558578
C         1.60264786787656    8.15691079327276    2.78859301683233
H         1.32353143535415    9.18878160896906    3.02486253583851
H         1.14686575255665    7.52249886601287    3.55360242787250
C         2.74227309016491    6.75528593442633    7.39447816493396
C         2.41785018052241    5.45917398248160    7.78523158907266
H         2.86927855348857    4.63423577285637    7.25547129016576
C         1.53982992686693    5.21459726169937    8.82202142148942
H         1.31523309114166    4.19460870380717    9.09569702946557
C         0.94544135497638    6.26710902065487    9.51870332893518
C         1.27074968966409    7.56801295860237    9.13072482565144
H         0.82297910520052    8.40203353709394    9.65489333279030
C         2.14734493603705    7.80356341658540    8.09105784058908
H         2.37853695148491    8.81806148239147    7.80263379279009
C         0.01059158816513    6.07150772063507   10.61940037660092
H        -0.32829449169245    6.98922213361802   11.08625201028874
C        -0.45021926070087    4.91471998148733   11.08053590584753
H        -0.16235186407942    3.96538930346954   10.66326920254561
H        -1.14430099972001    4.87545623633623   11.90285879127657
B         3.75019058831234    7.05439610767804    6.19220525757660

