99
CSD_code = CEHJEH | q = 0 | S = 0 | Stoichiometry = C32H50F6N6O4Pd | MND = 4
Pd      -10.21073970323516   -6.80729371856007   -4.10887888861375
F       -14.13831476048466   -7.95174687883733   -1.56943558532952
F       -13.03768674755237   -9.71468694805739   -0.99406547239570
F       -13.83751540004086   -9.54721298774533   -2.98843584265556
F        -7.04852495130746   -3.61814901945858   -5.91111485532434
F        -6.67251755490815   -5.07058561432526   -7.45768586425474
F        -5.94467078282162   -5.41185904054238   -5.45868063450873
O       -12.02499509520896   -7.69373024599279   -3.64045408859780
O        -9.12271588890419   -5.91116623942751   -6.66250730127657
O       -10.97936505863756   -8.11256672511264   -1.73023990343058
O        -8.40923853305140   -5.89936203488299   -4.55807399265580
N        -9.77165543686352   -5.04813696643716   -1.66718679277720
N       -11.53636544986369   -3.76863440491596   -1.52112728261571
N       -11.61453578657688   -4.55616107091562   -2.60681412859907
N       -10.73168355758826   -8.82429003279731   -6.35562254212033
N        -8.96692526962598  -10.11025340159840   -6.38757016837706
N        -8.83340405400219   -9.15666823559997   -5.45325343013458
C       -10.54828785519050   -5.35268418443977   -2.73230789820812
C       -10.41388304027180   -4.08341711736705   -0.95912772666306
H       -10.04269823774037   -3.63486525482621   -0.06078159900403
C        -8.50734994213293   -5.65846903312966   -1.32572947674937
H        -7.78602952992689   -4.86096371212900   -1.11995310712264
H        -8.17351227851189   -6.22504779710966   -2.20245670567734
C        -8.65138291392921   -6.58200888295105   -0.12085022651022
H        -9.39205255986500   -7.34815309783533   -0.33355929121670
H        -8.96084488714467   -6.02612700695264    0.76174354072398
H        -7.69886817165504   -7.05989938139473    0.08725413384874
C       -12.72453218982353   -4.49796499391379   -3.53474188450945
H       -12.64832778664081   -5.42352891723873   -4.12715745482275
C       -14.07195836948726   -4.50833694181498   -2.80759420513837
H       -14.06920813061107   -5.30358068451180   -2.05935010991559
H       -14.84032059281572   -4.75440884140388   -3.54394123188555
C       -14.42863349397439   -3.17488620843458   -2.14861453916695
H       -13.71000697790011   -2.97630319355758   -1.34962328214801
C       -15.82861164123252   -3.24795484829781   -1.54667531133642
H       -16.57002890561218   -3.43004250863474   -2.32225151706512
H       -16.07747772817272   -2.31435345490023   -1.04797756238306
H       -15.89004436398899   -4.05383960768394   -0.81943534630717
C       -14.32797122131501   -2.05211126363282   -3.17944578076892
H       -15.05889657719206   -2.21817647973346   -3.97518413319776
H       -14.56348761690513   -1.09802528310129   -2.70458798090185
C       -12.92308588051610   -1.99670089902915   -3.77130719001842
H       -12.21056497288886   -1.83024390630529   -2.96364285286713
H       -12.85102717373155   -1.16399980004304   -4.47258656056216
C       -12.60375746790955   -3.30167563556551   -4.49963605624181
H       -13.38986767989574   -3.45847402101021   -5.24712632245604
C       -11.25064030261625   -3.30562187882798   -5.24941100082311
H       -10.88009230317936   -4.34670089095204   -5.27173525743436
C       -10.16897337319963   -2.44332772107539   -4.59831841989530
H       -10.42089678977206   -1.38802736505328   -4.66529378546460
H        -9.22435801175001   -2.59503915644275   -5.11437699802892
H       -10.01784723830764   -2.69395342828798   -3.55192205927607
C       -11.44045831051325   -2.85883973834381   -6.69837965160728
H       -12.15039374046643   -3.50165799674663   -7.21309953150664
H       -10.49405197883467   -2.90873845278731   -7.23016465808333
H       -11.80414345630187   -1.83416990443022   -6.73827636204177
C        -9.89448469874716   -8.34388818378930   -5.40408154894875
C       -10.12105656458312   -9.89333837321068   -6.92823287873891
H       -10.53720380594678  -10.48258290572627   -7.71918518712802
C       -12.05540322532967   -8.34144869028525   -6.68349847772963
H       -12.71526226882049   -8.53838114053558   -5.83148828613227
H       -12.40679737958428   -8.91656162263631   -7.54459454181204
C       -12.05207591392323   -6.85026934916014   -6.99338091193413
H       -11.37854196598387   -6.62789095579211   -7.81739821511501
H       -11.70774181388459   -6.29442072754723   -6.11147605494660
H       -13.05830876943413   -6.53032079927616   -7.24967515732721
C        -7.65210420210832   -9.04319261938380   -4.60850827844883
H        -7.26690444513852   -8.02485660333129   -4.73548331621967
C        -8.05346330445905   -9.20784418397144   -3.13440732600863
H        -7.18508665738980   -8.96643338776555   -2.51786436890718
H        -8.86037068791557   -8.49489239968743   -2.88373474555986
C        -8.50854643209809  -10.63256043528114   -2.82205459318109
H        -9.37861553433691  -10.87274014384187   -3.44481877903134
C        -8.91784557459511  -10.74666079866413   -1.35729248451354
H        -8.07041691663441  -10.53562369664954   -0.70829618249195
H        -9.27699900069062  -11.74886417704403   -1.13698512592840
H        -9.71107939056143  -10.03832740600842   -1.13197628012040
C        -7.37613648102581  -11.59752470079346   -3.16848120995873
H        -7.68971512750930  -12.62349660328726   -2.96643993612956
H        -6.51507781516314  -11.38160122806151   -2.53077915485212
C        -6.97348942839981  -11.46771669132734   -4.63495786866086
H        -7.81064031308167  -11.75127877459345   -5.27273893920310
H        -6.15214356025939  -12.15482069310396   -4.83844067539475
C        -6.54057854206261  -10.03788162421494   -4.97927255445882
H        -5.69678823823934   -9.77207099009846   -4.33088246357174
C        -6.05006931024655   -9.92640614235141   -6.43954759289977
H        -6.74909452639056  -10.47091521817883   -7.07971438650227
C        -4.66538907810798  -10.56069923645576   -6.57896536442948
H        -3.93962291506865  -10.02319723988134   -5.97191398236510
H        -4.33866749277420  -10.51899289347592   -7.61510885746006
H        -4.66867804360492  -11.60246655445436   -6.27144767562111
C        -5.97410361113777   -8.47991851300923   -6.92918713939181
H        -6.95927393954108   -8.02927443070279   -7.02503521881443
H        -5.50902304102010   -8.44935049935397   -7.91164745773471
H        -5.37245029618744   -7.87386663637033   -6.25480850325066
C        -8.32183465665075   -5.65683774041537   -5.78358532463590
C        -6.98438814816392   -4.93749222924521   -6.16603726608969
C       -11.93486366791622   -8.16249381707811   -2.48694924492136
C       -13.24303549264510   -8.86077588888184   -1.99915426737014

