73
CSD_code = CEHMEI | q = 0 | S = 0 | Stoichiometry = C25H36Cl2F5N3OTi | MND = 6
Ti        4.61481631257751    8.47185434219808    4.33353549134791
Cl        4.07304937621092   10.66147499466308    4.07544638816311
Cl        6.12495483153990    9.03371239936058    5.92988867163775
O         3.41435002272346    8.04618729375653    3.21286149816110
C         2.82175741629705    7.00480182770100    2.65491941319772
C         1.53714683297304    7.05630937257514    2.07610770805598
C         0.98943846862792    5.86782342557186    1.61141788123843
H         0.00423356800723    5.89568864667679    1.18504948570520
C         1.65383037551345    4.64886565510172    1.66486593373410
C         2.95115767888269    4.64120787144420    2.16622777764002
H         3.52733991780830    3.72821702662722    2.17792287879382
C         3.53957294820145    5.79529688682777    2.64350952820954
C         4.99220517060005    5.81659550968544    3.04904259359249
H         5.33244096475707    4.78105075021613    3.19286053371092
H         5.55706272321448    6.22222351002110    2.18700660982100
N         5.22683166924333    6.56921239054998    4.27939882233269
C         6.35499169429844    6.22013052896544    4.95043184843456
C         7.60885824608979    5.93215106670096    4.36896281070435
F         7.75987466480527    6.08746858844891    3.02635257772823
C         8.72791687030835    5.58807414486319    5.10801618387153
F         9.88795630052299    5.35124902947505    4.48113459836007
C         8.65551633763108    5.50353929605270    6.49295140581506
F         9.73280955953147    5.16465915891109    7.21325365154769
C         7.43849529732511    5.77306234234209    7.11745023873249
F         7.33339909388170    5.67247295127545    8.44683823664270
C         6.33641064098763    6.10264707135211    6.35733527756890
F         5.14743553856601    6.30487632282820    6.97314690137919
C         0.81870612206612    8.39260530451639    1.92196297053770
C         1.71889964456324    9.33707765157120    1.11096194300854
H         2.01770764664481    8.87092925101459    0.17380506062505
H         2.60701507056372    9.59292436885013    1.68501783161808
H         1.18506618148162   10.25729384182930    0.88595235062310
C         0.56681946516294    9.02127941383493    3.29779273957781
H        -0.03529800907055    8.35847116926541    3.91821598245904
H         0.03241464416516    9.96160478972293    3.18104424291100
H         1.51880956564018    9.22994008522017    3.78437780908237
C        -0.52403865967252    8.26165018798123    1.19683766708447
H        -1.21550955504670    7.63312249297349    1.75337839593001
H        -0.39318308637325    7.85519067359373    0.19689963679235
H        -0.97399311637755    9.24739490473144    1.10079310206322
C         1.03389422529283    3.34840566556535    1.17678822378203
C        -0.38928010626547    3.53099701237628    0.64267444280949
H        -0.40354003823722    4.19865664874856   -0.21542759960928
H        -1.05042152419648    3.92151520033169    1.41250504700799
H        -0.78041631307004    2.56745898125084    0.32283993085015
C         1.89654182080302    2.77183214490263    0.04516140555118
H         1.97066430387493    3.48619303598844   -0.77189198451100
H         1.44971229284296    1.85631899010716   -0.33604039390621
H         2.90077010334944    2.54123830529712    0.38855412658123
C         0.98118770098150    2.35624160274690    2.34720059126454
H         0.37573999807038    2.76107940451791    3.15529720345074
H         1.97407932352583    2.14982090259392    2.73621780457388
H         0.53996862182427    1.41664457788465    2.02218788300286
N         6.17453485379245    8.90671957801920    2.75720194979493
H         6.72837476873345    8.05247011058102    2.64870716662837
C         5.56382835754132    9.19594429988450    1.45514160700071
H         6.33135184954937    9.32977326971580    0.68059462135000
H         4.98587242279159   10.11921304419394    1.53894607189384
H         4.89724185928541    8.38410157520805    1.15706375604331
C         7.12908026819322    9.97260020473703    3.08874632217510
H         7.83512618837865   10.13477388923476    2.26405314252392
H         7.69083654997657    9.70957979989991    3.98516048496258
H         6.58164461171842   10.89865924507143    3.27742263416885
N         3.27057457284710    8.23423200554228    6.01618229730571
H         4.01133168587472    7.99452879553607    6.68072192455850
C         2.61198420268810    9.41501499176071    6.58307063091344
H         2.15954055299393    9.17837760094803    7.55492156549524
H         1.83156014987924    9.77443629894069    5.90977732785421
H         3.34826876871674   10.21025501426585    6.72039167221452
C         2.35733059536992    7.09098845221316    5.95691317749051
H         1.94513482134873    6.86834764307933    6.94952739342412
H         2.89436136325713    6.21337366842036    5.59133975236055
H         1.53375271338146    7.30987150112937    5.27607514256295

