45
CSD_code = CEHNEL | q = 0 | S = 0 | Stoichiometry = C17H18N6O3Zn | MND = 5
Zn        0.75075767904983   13.01155813454850    1.86865191447928
N         2.05124030289109   11.48981944926234    1.00300509020951
N         0.27134935396858   13.02260540811055   -0.13042257015299
N        -0.51325193544213   13.99396923963741   -0.61079864768356
N        -0.82307587828331   17.15907040133643    0.28913518804192
N         0.01336573171750   11.91769819715220    3.13176006734978
N         1.81180170578031   14.53002366450144    2.19507028135943
O        -1.06319261416945   14.41615649334210    1.58104924653253
O        -1.01681894324135   10.34518381584848    4.54096190871235
O         2.29046986505958   16.80942256494837    2.54123890791443
C         1.69092515495902   11.18980356705155   -0.23080594696492
C         2.20107029453052   10.05902335486940   -0.90976928304585
H         1.87860040381861    9.85818358143859   -1.92023504782832
C         3.08240890174195    9.23950892737578   -0.26452683231878
H         3.48589308466135    8.36114164888340   -0.74892143439253
C         3.47386997407399    9.54086761669762    1.05732858198048
C         4.37293073548461    8.75032423161475    1.79833142405753
H         4.78681256761078    7.86382172451656    1.33902398409109
C         4.70889164706446    9.10140525021422    3.07685661017755
H         5.39517191550487    8.49017664067181    3.64415375146002
C         4.16646568956505   10.25635066008654    3.66628809132310
H         4.44694994378577   10.51211682791930    4.67691802014482
C         3.29236724619037   11.04833275377773    2.97621826445128
H         2.85648280115246   11.93669544699114    3.40563815386239
C         2.91976636518484   10.70717950612170    1.66004447001385
C         0.74581423193797   12.08607748224853   -0.85857978220856
H         0.47616793319525   11.95200303328444   -1.90435600660810
C        -1.05295700329214   14.69096914381297    0.37515980510691
C        -1.69145086748136   16.01381320514680   -0.09713361209344
H        -2.66849624191367   16.13826480548824    0.37241131361419
H        -1.79170215411312   15.98213959303109   -1.18224249488456
C        -1.34212952757619   18.39426257297901   -0.31883728331752
H        -2.37834271448395   18.55171173104939   -0.02342242257266
H        -1.29278598874350   18.32845718280422   -1.40465723501361
H        -0.74860120539661   19.24560969323428    0.01136412946344
C        -0.80842900477199   17.30485114281393    1.75796054136252
H        -0.00351024368358   17.97063510238692    2.06202069569692
H        -0.64303377423964   16.32899608440530    2.21959596786183
H        -1.76401403324122   17.69569861285168    2.10227130500353
C         0.54711096239920   16.92192529142922   -0.19880895803194
H         1.17425928879707   17.78425593340149    0.01933556614006
H         0.53273970389637   16.73223058529898   -1.27047653854285
H         0.97643763972004   16.05571982696388    0.30278932287811
C        -0.51202100387733   11.13281397608236    3.83247996742839
C         2.05449201020410   15.65972589436237    2.40303152493982

