49
CSD_code = CEHXAP | q = 0 | S = 0 | Stoichiometry = C19H22Cl2O2PdS3 | MND = 4
Pd       13.76180032316022    6.60470548006562    5.10663098977047
Cl       12.94997932674785    6.91406254577052    7.17422442542824
Cl       15.46983826922498    7.97040135631613    5.57380664231790
S         9.38607567362674    8.87587896181491    5.05566075152486
S        11.92589013221749    5.27359192546907    4.50932555424724
S        14.73575478703145    6.17088676954014    3.00748272658497
O        10.11509351469546    8.81066287111221    1.13020360280752
O        12.15338034457492    7.95512741901207    0.69283258774979
C        11.06769795670584    8.66606551269943    0.14187334844034
H        11.37889846355749    9.68337452447881   -0.13257541568413
H        10.66432498643702    8.15606466229020   -0.74842504881475
C         9.32944730819048    7.73242727758610    1.49314171849866
C         9.30946946291366    6.51408958639962    0.82906743908505
H         9.96737817083159    6.32499936235593   -0.00454834168287
C         8.44488297124581    5.51227977854972    1.23991344513072
H         8.43839348702239    4.57159710421137    0.71042160106604
C         7.59741862518117    5.71466275585306    2.31354409122728
H         6.91853920367001    4.93696931044627    2.62643190756633
C         7.63981288462944    6.91753236021442    2.99641336504983
H         7.00845833865100    7.07914284705943    3.85743067844861
C         8.50362485925519    7.93267390804863    2.60928824892651
C         8.61000683433643    9.18521315670414    3.41004354512684
H         7.63068346518779    9.58960530498696    3.66032376861873
H         9.20198692054789    9.93900307437157    2.89605288154180
C        10.85223794935737    7.88605919509823    4.59220060150116
H        11.05900313386683    8.10631107219927    3.54440731752352
H        11.68492807186327    8.22768628419122    5.23182218465201
C        10.54884712183193    6.42016109214666    4.85077982488613
H         9.69321611112263    6.07608002912776    4.26795466537090
H        10.35245118667599    6.27900489907612    5.91509731976905
C        12.04309109171295    5.42714036317067    2.67406350417138
H        11.34741502670283    4.70088858471267    2.24892391291117
H        11.72709695457960    6.42804900180346    2.38815161413606
C        13.45022052679660    5.15706522971811    2.18369549533241
H        13.52801595186195    5.34711337898072    1.11197313724582
H        13.74471446518539    4.12706672046314    2.38993373195754
C        14.36921334316369    7.86087590183615    2.37800380580797
H        13.36910540392565    8.15578280201582    2.70842726672584
H        15.11544732163688    8.47058998926720    2.89472412155379
C        14.51193578210162    7.95249107912129    0.89753488682170
C        15.77014347274407    7.95975008776703    0.31051608254261
H        16.63784374464523    7.88156350871741    0.94789785456219
C        15.91537571525009    8.07818214965336   -1.05928228526239
H        16.89982679959984    8.08680439251270   -1.49990247830687
C        14.79289333112402    8.19850549843891   -1.85970329723264
H        14.89519157530713    8.30387664424466   -2.92870734760172
C        13.52775962866384    8.18105406932720   -1.29793586357517
H        12.65903561857862    8.26900248136614   -1.93183099326084
C        13.38125436206471    8.04107768969389    0.07559042478743

