71
CSD_code = CEJDEA | q = 0 | S = 0 | Stoichiometry = C21H44O3P2W | MND = 7
W         7.10934399980879    3.11843962491012    3.74704257483196
P         8.56396089707685    5.13862319421999    3.91451165223567
P         5.82197463548284    0.98997326745017    3.57708432096113
O         7.55645782708033    3.10412945875535    0.64543236785522
O         6.97901466811863    2.93837012991942    6.87020459865662
O         9.66813567057339    1.37730120146876    4.06725559037457
C         7.34609116829531    3.13515753452646    1.77727621537225
C         6.96745255500905    3.04434569194400    5.72383394657762
C         9.45234679001652    5.34350764276741    5.55400120074308
C        10.30187077810331    6.59521151540454    5.76433061382651
C        10.26584364060482    4.10743693794192    5.92291332731386
C         7.66198347230757    6.78211963887869    3.82930819882379
C         6.93551901859565    6.93053778344957    2.49415870570205
C         6.69013417357030    6.92928920079797    4.99842215195954
C         9.76716486459281    5.35324357975704    2.48994108951980
C        10.68442358771091    4.14427928311755    2.33962936564367
C        10.59373532554096    6.63544050098227    2.41606510951427
C         5.81859901044221   -0.06264277265027    5.13503891649788
C         4.70966336000189   -1.09747239310093    5.32463241317713
C         7.17983096734416   -0.71811519193574    5.34965672246603
C         3.97968196391645    1.18695080346257    3.29191852473804
C         3.34361038968884    2.00187478149911    4.41759018408716
C         3.68915853819995    1.84267610259482    1.94335555757922
C         6.25128466800282   -0.09289370337692    2.10759199732864
C         5.55251547379539   -1.44729609939108    2.01685852511647
C         7.75639784865340   -0.27345885695435    1.93551812380624
C         8.72736153314656    2.02762085955222    3.92830929191381
H         5.51740775951226    3.53763654022989    3.59221878130876
H         6.09751384840739    4.42503142327002    3.67604651283638
H         8.59966714452027    5.38148776912413    6.24752473045257
H         5.70030456107993    0.70178095572996    5.91626775632709
H         3.53547123679151    0.18615384174710    3.29775450062223
H         5.91332115599823    0.53190606193917    1.26906805635825
H         8.25584217675160    0.69155625803187    1.90551060227995
H         5.96379540128668   -2.14442729400255    2.74268621463197
H         3.61504621787275    3.05312705730838    4.33823983779746
H         7.26620717671331   -1.06863978264932    6.37767127039668
H         7.30890399542840   -1.57518727195755    4.69258581642871
H         4.85245416317535   -1.57851600203323    6.29240600273397
H        11.39503767749817    6.62872102959338    3.14881454193220
H        10.10860139176801    3.22264346229143    2.34951355851090
H         7.21982218062639    7.08912820057193    5.93443178402114
H         6.30385822383929    6.06632454930641    2.28961587228163
H         6.30121179213213    7.81631876941471    2.51107716492902
H         7.63805009593657    7.04035289536787    1.67158429123999
H         6.03720966863808    7.78610370420922    4.83538043081006
H         6.06469986942954    6.04312171898523    5.10687897175551
H        11.21630297533200    4.20014648661095    1.39029691387810
H        11.42296692141545    4.10404254294440    3.13643228982526
H        11.05141623639221    6.70008937320672    1.42894196303282
H         9.99524210198268    7.53021648065302    2.56038270460929
H         3.72068966601553   -0.64820633170829    5.32689432918743
H         4.74114180565832   -1.87102996849185    4.56411010272476
H         7.98268349048487   -0.00913317621124    5.16848255132187
H         2.25759798449555    1.93334640198364    4.35883563059159
H         3.65521664317370    1.64919498168912    5.39810576249867
H         8.18975488319287   -0.86214494584545    2.73891259064909
H         7.95656257665555   -0.78487058957953    0.99421533046728
H         4.47870037403645   -1.36916626040245    2.16668705843305
H         5.71919652602361   -1.86889396679621    1.02561545368104
H         9.80467354751771    7.50219032969512    5.43278388275671
H        11.13288400953208    3.99183096991655    5.27759644776780
H         2.66056568148712    2.20059137709186    1.91864045656222
H         3.81625177495141    1.14249885187689    1.12136171173222
H        10.51379578987097    6.70310311208674    6.82797581650789
H        11.25406681766525    6.50911330738938    5.24848705165720
H        10.61895091443747    4.19407080114446    6.95015206636983
H         9.65699006706917    3.21057211859737    5.85164260010406
H         4.34904086298691    2.69505199201392    1.77525583913613
H         8.40167067539790    7.58619556498367    3.90197238882879
H         9.07735511114253    5.33911694467459    1.63346107339980

