58
CSD_code = CEJDOL | q = 1 | S = 0 | Stoichiometry = C26H26IrNO3P(1+) | MND = 7
Ir        2.72039569296170    2.85326132740116    5.04585040983940
P         3.06478384112732    1.54159929331430    3.13468820817824
O         1.63351561832153    5.35860043114419    4.05616291358478
O        -0.00673710786960    1.66257700395934    5.58791894184665
O         1.18331459430056    3.51952629454331    2.84387296964831
N         3.81386193050966    0.93167586015949    5.96630467581390
C         1.70372953222621    4.18093324891105    3.86790826617118
C         0.37259448528425    4.24550704615283    1.88052409107874
C         1.02556988537575    2.12510271157554    5.44842117133748
C        -0.93258142188114    3.53938518989456    1.71150822809099
C        -1.41707322578300    3.15762032389399    0.54500925020787
C         4.58137217098077    4.02510515734665    4.80261829967840
C         4.30256826931887    3.92560321934685    6.17227900086836
C         3.05358778694569    4.34494034626848    6.66364280707448
C         4.34144018794886    0.04157465928094    5.12129286638661
C         4.82448591943983   -1.18416039532974    5.57070622014976
C         4.76235283775101   -1.48827921260865    6.91909168882259
C         4.21581818238103   -0.55469870328486    7.78751389291956
C         3.75345549505133    0.63716809573411    7.26237591796082
C         4.43514144899669    0.40822645689725    3.67208868504760
C         1.71866594048608    0.40287095439554    2.70920662847395
C         0.94042010356093    0.61300626960224    1.57534751476009
C        -0.12492265648029   -0.22619414033782    1.30461536175848
C        -0.42483903437027   -1.27083690775834    2.16347208300650
C         0.34145006126446   -1.47696662117076    3.30024996103206
C         1.40580495476942   -0.64022618797347    3.57827174253060
C         3.69111835004413    2.11522867034135    1.53217671211416
C         3.95094293563082    3.45818513665123    1.29033678772969
C         4.45566901183701    3.85650147416282    0.06404177187299
C         4.70569288200608    2.91657875084412   -0.92178860911230
C         4.44862232050376    1.57464597815055   -0.68369280022003
C         3.94212585049359    1.17112624393518    0.53711179721402
H         0.22482662683745    5.26198308379050    2.26226439601493
H         0.93447074949097    4.28366745517444    0.94307109398528
H        -1.47376801093154    3.35866637518659    2.62930487372001
H        -2.37449793766192    2.67499008911690    0.46347814364409
H        -0.88869414860547    3.33547382032237   -0.37698929644104
H         5.53426198626403    3.64847997372267    4.44924699210231
H         4.25605993127126    4.92114344926866    4.28281428031793
H         4.95092930257900    3.32349538122460    6.80518802916947
H         2.83926303998026    4.17911177661762    7.71212156779617
H         2.60934288258356    5.25406175836269    6.27207315585885
H         5.24364901037948   -1.88555805017703    4.86650463230476
H         5.13176504249548   -2.43355333448882    7.28472054566753
H         4.14490076587688   -0.74666085096084    8.84519403547497
H         3.31204869550853    1.38905306902066    7.90142581024156
H         4.46942176108141   -0.48738366341024    3.04671820993250
H         5.36471572227135    0.96636950689607    3.50853359386849
H         1.17274861326443    1.42969422504147    0.90913267481747
H        -0.72337680296942   -0.06156992741368    0.42205097785745
H        -1.25763780369606   -1.92296809682717    1.95115423537945
H         0.10533118953122   -2.28744573650366    3.97278911608425
H         1.99581776196390   -0.79626749621055    4.47175248326623
H         3.75482405770666    4.19104137034031    2.05855708377682
H         4.65348746465636    4.90124764799934   -0.12092867038181
H         5.09906152743276    3.22813974571024   -1.87684508609379
H         4.64211902220313    0.84222371963901   -1.45231772581491
H         3.72848270733588    0.12657673309507    0.71765739158280

