64
CSD_code = CEJMEL | q = 1 | S = 0 | Stoichiometry = C28H31ClN2PRu(1+) | MND = 9
Ru       13.38290651924259    3.26704453174018    2.33278864684800
P        12.27909271449726    1.28677186768418    2.74656454260575
Cl       13.13873349775975    3.61902046018230    4.64537336144981
C        12.03037352126383    0.21418400554054    1.30724761371062
N        14.68569670950647    1.81350248280217    3.03684815300477
C        11.02605231608675    0.79385625156675    3.95153118403951
N        16.19944846038533   -1.29239029602860    5.34489552562234
C        13.90798220795068    0.77179826318748    3.41110601720324
C        12.93819781293626   -0.87651694472166   -0.63064645450335
H        13.78717668515036   -1.15608346746480   -1.23631084208948
C        10.74760748066594   -0.15954377753975    0.91909719590152
H         9.89949879688293    0.12818259976543    1.52459260677229
C        15.70797791215424   -0.29822077241119    4.58933315032450
C        15.95784672495099    1.81594388414350    3.42778982043343
H        16.56202992805374    2.66658360980884    3.14058179032391
C        10.78614655270902   -0.55999529316892    4.18280623861537
H        11.32565669997543   -1.30772341034276    3.61661482642197
C        16.49998157566537    0.79854679900402    4.17556915289047
H        17.53534421509464    0.87005554905909    4.45778187516250
C        14.35461747977200   -0.27936207607337    4.16318898305522
H        13.66304212858035   -1.05658072310042    4.43893445948724
C        13.12510453405949   -0.13185558200230    0.51861063682014
H        14.11822508304997    0.18209040460609    0.81713564075123
C        13.49733499957706    3.49904824253194    0.08355888704017
H        13.54233716026893    2.78062655944312   -0.72798662364523
C        13.37996076692989    5.57204229941097    2.02149122723681
C        10.31598861807996    1.76655172066572    4.64565025081293
H        10.52328562209310    2.81074289962261    4.45726310947710
C        14.69234441940843    4.01216733401672    0.63443242783316
C        14.62030641492505    5.04555141449411    1.60639248556906
H        15.53673550632536    5.50063349309971    1.96674219729631
C        11.66035281015312   -1.26322679562341   -1.00702636702524
H        11.51723396394718   -1.84344448507981   -1.90540053264088
C        12.23625915800506    3.97990785320558    0.52069619713645
C        10.56793127823780   -0.90214575368680   -0.23484435491146
H         9.57352292532146   -1.19699287080796   -0.53299202292540
C        13.31167435478881    6.68617862271144    3.01377962570766
H        12.46990855013355    7.34239518353026    2.80388359191220
H        14.23142608687959    7.26644212785598    3.01832013594974
H        13.16991098773796    6.26769289959450    4.01376253085374
C        16.01831801191871    3.56583436642961    0.09717728352566
H        16.00785800306017    2.50621932506507   -0.15148403681626
H        16.82149079518835    3.75776475726580    0.80492011627550
H        16.23702322157239    4.12175771308430   -0.81593702770422
C        15.34650954581414   -2.37692202381816    5.77543912219630
H        14.51898696279993   -2.00715240363919    6.38561736958895
H        15.92259427695296   -3.07673181778601    6.37330726553808
H        14.94093974137196   -2.91756427949497    4.91688723370296
C         9.13887598635655    0.03853459167172    5.82174973120122
H         8.40413666088936   -0.25849145926074    6.55437634027480
C        10.97576825631420    3.48820971945604   -0.12318051722523
H        10.14303047978115    3.51390836875678    0.57671699868262
H        11.09355877448437    2.47232311461324   -0.49551259990632
H        10.72871565352419    4.13376969469000   -0.96717585122645
C         9.37153234920592    1.38282624967067    5.58201098050886
H         8.81912230016949    2.13314476196781    6.12628902077561
C         9.84363189777995   -0.93098310405072    5.12249965777895
H         9.65419508716261   -1.97740199748224    5.30910121411682
C        17.57321977475628   -1.26276016863413    5.79501973734204
H        18.26098276069295   -1.25345944885384    4.94647955148085
H        17.78071264807803   -2.14858740431093    6.38799560966374
H        17.76357723364223   -0.38431142687886    6.41628261772967
C        12.19060107129404    5.00596832037199    1.49548582600632
H        11.23246532795315    5.43462543995885    1.77247746595632

