68
CSD_code = CEJNAJ | q = 0 | S = 0 | Stoichiometry = C21H39Cl2NO2P2Ru | MND = 5
Ru        7.50702641486341    9.82165468578593    2.44478110692295
Cl        7.63424963723426   11.47866441348044    0.81043914165818
Cl        9.74167666064248    9.85532736181708    3.10480456874620
P         7.69322924641493    8.24502068245490    0.79166079311004
P         6.70235494291104   11.26380206446188    4.04136892021127
N         5.57406456608403    9.57586744368110    2.07874266081522
C         3.29315085525262   10.09422716070678    2.57464462692269
H         2.59899769871994   10.62957078399321    3.19963635907721
C         4.65123769375001   10.21006719781192    2.82418177566680
C         5.16010628430271    8.77753912878336    1.07821783717565
C         3.81907855721775    8.61693611574945    0.76800695423900
H         3.54529002723177    7.97304230527196   -0.05018684422320
C         6.92019773582201   10.66806293143609    5.81555635898514
O         5.07551912641517   10.94713268237854    3.86592239299631
C         7.00689547862055    9.14584937195937    5.65537946411318
H         6.10799968414165    8.74882215156220    5.17424732404515
H         7.10953924617854    8.66152430798267    6.62587053423778
H         7.89444855783627    8.89599233982287    5.06473456219834
O         6.08818787757771    8.09368392993607    0.38508862633764
C         6.66683992543977   13.14440462363329    3.93743772153377
C         8.43993995649861    8.37629823115822   -0.92798347871889
C         2.87441918153179    9.29559656358378    1.52183596543095
H         1.82538740505362    9.19690040658119    1.29713191748919
C         7.97337601505168    6.54911068745614    1.57204280163948
C         5.77169736850807   11.00392702066889    6.76320483881134
H         5.80900506963670   12.03436757320397    7.09870295417952
H         5.83644526840122   10.36620247702213    7.64458569347621
H         4.81069867214692   10.82514662535491    6.28522114550672
C         6.12154819069623   13.84674138923498    5.17737723290900
H         5.13114891343628   13.47350595568682    5.42837126930126
H         6.03663950383816   14.91240327157041    4.96558029949902
H         6.78112789499984   13.73342370743997    6.03314405418606
C         9.80097206223526    9.03693800523163   -0.70672995320956
H         9.67417866542824   10.00068111673403   -0.21423857887498
H        10.30292504635381    9.20066089626363   -1.65862348144434
H        10.44075983713360    8.41934771168601   -0.07861039133878
C         8.26497995803737   11.16839804236477    6.33526751123401
H         9.04321643983564   10.97955839182510    5.59445876866530
H         8.53005339239557   10.63970680190351    7.25023830509996
H         8.24271632097963   12.23222277850422    6.55681099768259
C         8.10926940997376   13.56538872159782    3.65925127738131
H         8.76248634219077   13.31339224528269    4.49181698604363
H         8.16296964003499   14.63944793601450    3.49044922706114
H         8.48201451910716   13.05933271704017    2.76916166756814
C         7.54013755038687    9.28808905764299   -1.76546876057991
H         6.59690437106122    8.79583482468269   -1.99549242495919
H         8.04117399557926    9.52757864398491   -2.70180087970506
H         7.33329911759897   10.21997124857632   -1.24356826370546
C         9.46906422629483    6.38666144359662    1.82692489399007
H        10.01600269654154    6.21969308468286    0.90230974316242
H         9.64906985299911    5.53581877483012    2.48321984202741
H         9.86732605843639    7.28225938783274    2.30792797129390
C         5.77414897946178   13.51065060708130    2.74780563522706
H         6.06010191162745   12.95498867290304    1.85637619690558
H         5.87928486182622   14.57187434252928    2.52945288156159
H         4.72743269821103   13.30908232302235    2.97069474601241
C         8.59705845467667    7.04608268391316   -1.65864248353652
H         9.31793912872916    6.39740979396141   -1.16866860117070
H         8.96188143157511    7.24318522321959   -2.66643206336259
H         7.64162264449052    6.53342145898794   -1.74109992110234
C         7.37674616934098    5.35813691961070    0.82724288985712
H         6.39481527364911    5.60499347522030    0.42703859338689
H         7.26085138442631    4.52337489768519    1.51848606524803
H         8.01338725334969    5.02654840680484    0.01418451613152
C         7.26055736767730    6.69361853647014    2.92265231515980
H         7.63970842595173    7.58743087229283    3.44117394146404
H         7.45899512359751    5.83203065369277    3.55952134995022
H         6.17852573234697    6.77787371066372    2.79305990246011

