116
CSD_code = CEJPOZ | q = 0 | S = 0 | Stoichiometry = C37H68ClN5NiO2Si2 | MND = 4
Ni        1.03506880343455   10.64354257529676   27.43534211662893
Cl        1.18591191034960   10.38584914879509   25.26068266505687
Si        1.04963949973714   10.93592995220169   29.60430013276553
Si       -1.06139950829957   12.40996197880953   31.32667441388335
O         2.05530942794984   12.12256512437304   30.15371210187731
H         2.01269366468066   12.28792546772974   31.09421188971428
O        -0.44548635850544   11.36581769878435   30.25637498273720
N         1.51332306075851    9.44929812050624   30.46687119583830
H         1.04753588869309    8.65433912295286   30.05785265799984
N         2.69294140873281   13.03403905782042   27.26004740069588
N         0.59691282016201   13.42814126381820   26.90625494658465
N        -0.70184520844755    8.29307605652016   27.52725209633635
N         1.39528825201532    7.77094414734674   27.53508998883437
C         0.54065698633141    8.81141383707254   27.56598366152076
C         1.52566166391929    9.31827681473625   31.86467821492740
C         2.63968908301619    9.75210393663220   32.59662894589231
C         1.47926494994598   12.46040124782467   27.21575139297255
C         0.44934534852371    8.70103596886275   32.52769762128111
C        -0.73603959090333    8.20422480062854   31.72764847105912
H        -0.84512254650916    8.86661694443947   30.86176094991540
C         0.50523559068968    8.53603810828567   33.90203296243062
H        -0.30709749912693    8.05132391961415   34.42157650937674
C         3.87378895079801   10.28207170716831   31.90153840638972
H         3.62626338836032   10.45756190318063   30.85453803121748
C         2.58097277659975   14.37972132178274   26.98169411326921
C         1.58734424762982    8.99417226492410   34.63030638145560
H         1.61021815688603    8.87108040666966   35.70334856496336
C         1.25842377811225   14.62934110165884   26.76040608602086
C         2.64492047059289    9.59231992221836   33.97486081488821
H         3.49998213386829    9.92178317920468   34.54634846955887
C         0.69040001532216    6.58774863330621   27.45931720683824
C        -0.63311736022511    6.91792907073353   27.44641828332093
C         3.88207284445218   12.22494645747870   27.46192014030913
H         3.48609094039585   11.26206538102387   27.82376281958684
C        -1.86149020922336    9.16944143441056   27.48134915540491
H        -1.47935467666406   10.13519500561468   27.85040602415130
C        -0.78851919378820   13.09162884447452   26.61966070127774
H        -0.87617476999580   12.03937900132297   26.94470279795548
C        -2.05637275686998    8.24778529836140   32.49730307798363
H        -2.07981340449482    7.50506332230971   33.29156982430307
H        -2.88472919375586    8.03573788112410   31.82262743549109
H        -2.21504913132926    9.23213455647718   32.93050120061954
C        -0.47086721359161    6.77202270349653   31.24486917320323
H         0.44091570879504    6.71212913952498   30.65345891986277
H        -1.29778730955428    6.41119364081280   30.63551959537342
H        -0.35924432852676    6.10829185959359   32.10040041029036
C        -2.95062224303595   12.24984187821920   31.14851327152990
H        -3.28912938671348   12.50920704372888   30.15026930624817
H        -3.45249625039384   12.90852118992864   31.84930716686102
H        -3.28117696211002   11.23691690149624   31.35375445984196
C         4.80692497207827   12.77595261760777   28.54013316198848
H         5.37183598357046   13.63694773437088   28.19665610457387
H         5.51250451757977   12.00103593472159   28.82925537194722
H         4.21705007943739   13.04606877318194   29.41152668292847
C        -0.51283567915254   12.01309468109672   33.11003035731763
H        -0.77888249786834   11.00229190108285   33.40036652038151
H        -0.97521316475953   12.69180069791191   33.82077674798048
H         0.56465272510473   12.09545610942586   33.23039350196124
C         0.59920575666268   15.93370608599280   26.47827729398939
H         1.34680150639847   16.67030397933162   26.19571747586959
H         0.08131417730114   16.30192640058488   27.36433359719297
H        -0.11891150681386   15.85226022529750   25.66636354507211
C         4.97761930024362    9.22065913377677   31.95535414600007
H         5.25858141333879    9.00838044362190   32.98484125203054
H         5.86045309606585    9.56595469923870   31.42081050564328
H         4.63516931079740    8.29549165150778   31.49846763344363
C         4.37892626653637   11.59051004116894   32.51316284637633
H         4.79111830873454   11.42575098002369   33.50619315800002
H         3.57714435193061   12.32134994266248   32.59671910252757
H         5.16348646131946   12.01357481576687   31.88932360747437
C        -1.05216525995604   13.13147415110271   25.11513590206264
H        -0.93902748418699   14.13327938849555   24.70945380598973
H        -2.06409088785852   12.79006877201323   24.91340154634175
H        -0.35545316960975   12.46560937929102   24.60995682473496
C        -2.32579619539177    9.35148101845137   26.03686070076364
H        -1.48832560910002    9.68266485444852   25.42537655284923
H        -3.11189102946206   10.10060106343944   25.99226193406091
H        -2.70979327589856    8.42138620469271   25.62410128479498
C         2.83080409417612    8.00045439758643   27.49104528039230
H         2.92820662215428    9.08783359164211   27.66318319077866
C        -0.48049609348665   14.19901945037283   30.95690438376732
H        -0.02560001290295   14.65514751394743   31.83159340916841
H        -1.29902527266389   14.84582410588341   30.65396578078601
H         0.26280125600689   14.20380846660784   30.16471475441631
C         3.57573170232113    7.28046471477093   28.60941798073343
H         3.11367025585121    7.50590529783105   29.56762053548711
H         4.60261627363229    7.63570708243564   28.63609494168893
H         3.59333522648908    6.20500134282780   28.46000106680281
C         3.71605768690699   15.34207613777438   26.96004992213530
H         3.40611807707377   16.26491197306440   26.47634864581346
H         4.56364293922251   14.94106336014677   26.41002098463294
H         4.03997531208238   15.58316735434625   27.97240020957193
C        -2.99098075795962    8.73831130078736   28.41088746916128
H        -3.58723456915754    7.93636739675250   27.98526307011742
H        -3.64503499057714    9.58878946228033   28.58564981972607
H        -2.59096158739329    8.42047478193333   29.36955198702139
C         4.58611870243340   11.97439608007037   26.12912097429466
H         3.88185499380336   11.53400702886427   25.42628224426206
H         5.41190029900899   11.28282504701736   26.27389605272102
H         4.97694199670515   12.89449440642852   25.70167424162122
C        -1.78910178393035   13.91594711214002   27.41954384659186
H        -1.51972863812991   13.90585353943209   28.47137927856698
H        -2.77638240862651   13.47232248798750   27.31433074186979
H        -1.84233320720282   14.94206232424920   27.06794722384179
C         1.29691975943305    5.22855759798459   27.45019803121236
H         0.57209731916578    4.50499144710581   27.08576690239964
H         1.59270597520898    4.92875963798368   28.45651801386917
H         2.16992862067258    5.18577077431058   26.80534344468567
C        -1.80876641970515    6.01068670272936   27.35297425517241
H        -1.48046821024248    5.01628389699170   27.06191009488671
H        -2.51655377079806    6.36462119253788   26.60708860485571
H        -2.32410253783191    5.92732463092784   28.30950521290005
C         3.39442927997886    7.70330998357390   26.10320672832790
H         3.33716132918544    6.64703556742226   25.85459176379982
H         4.43616126095090    8.01010419777314   26.06212853993746
H         2.83685214246105    8.27164058972932   25.36153205124457

