65
CSD_code = CEJPIQ | q = 0 | S = 0 | Stoichiometry = C32H26N4NiS2 | MND = 6
Ni        7.53734974792314    2.86311166717374    4.99012852711197
S         8.43374051422938    0.82735083703284    5.30476063041736
S         6.02602687610496    1.73912489982848    3.73535015594142
N         6.39473587628745    2.76768200386587    6.97160323449879
N         6.40039004174294    4.51825635328537    4.97902735217865
N         9.15835768926021    3.87392538658329    5.71916034760873
N         8.82365099069441    3.32116449800755    3.14436084378386
C         4.46754234468004    2.44492726254733    4.11883199531976
C         3.68544039047831    1.90866266648997    5.13873313632398
C         2.44815800158079    2.45103219677702    5.42787685670918
C         1.97257189841489    3.53219458027993    4.70349712562533
C         2.73348052468769    4.05322525759589    3.66814616031542
C         3.96669339379693    3.50980109116646    3.37049175917895
C        10.15139834274078    1.12361163867799    5.50716091149592
C        10.68056452720598    1.47229908657895    6.74930828992909
C        12.03392411832681    1.70145745963712    6.89215508057066
C        12.88393498554058    1.56681880633575    5.80486905456788
C        12.37130744189922    1.18104198054630    4.57717091043874
C        11.01573820048658    0.95907457984781    4.42757912312346
C         6.32617403504736    1.73177473538207    7.79578179369545
C         5.27031838400322    1.53058525379898    8.66900613001561
C         4.23124098176129    2.45031486548277    8.67340244901451
C         4.28492327607431    3.52247172348475    7.80284768902990
C         5.38912004610743    3.65421696437857    6.96079700544967
C         5.51736595428511    4.73048099185564    5.96893346952006
C         4.75484829640015    5.89636376169817    6.02231270612781
C         4.87657650396763    6.83561499588888    5.01739243713302
C         5.77175183279639    6.59202594883642    3.98692827740419
C         6.51694654853942    5.42632315926284    4.02115920251194
C         9.22617781710102    4.26009027275940    6.98470187678900
C        10.28797846612842    4.98019600251999    7.50401711981655
C        11.32172189206815    5.33997466206876    6.65371274313478
C        11.25318747158875    4.95062033015302    5.33054484386146
C        10.16479485187706    4.19834209619194    4.89190606616912
C        10.05550835548249    3.69558995385621    3.51582475788221
C        11.15234428995850    3.57053642242053    2.66365401638144
C        10.96015987123340    3.04556515782579    1.39944922061732
C         9.68368465510853    2.64996079029978    1.02608923112969
C         8.65029666481766    2.80626350928801    1.93489860948097
H         7.15354942089806    1.03538635208773    7.74034612988923
H         5.26178758772724    0.67686162271053    9.32805693333606
H         3.38704170721776    2.32666461277320    9.33587190098422
H         3.46959955914368    4.22610043468132    7.75697766333092
H         4.07856531798714    6.06627478082336    6.84428152692028
H         4.28437731937316    7.73839081505116    5.03533799122099
H         5.89126826938796    7.29022889618716    3.17363930521670
H         7.23190884865208    5.20275708536112    3.23971419787108
H         8.39644953788403    3.97001728416242    7.61601320281187
H        10.30219361823412    5.25175756934207    8.54768985267497
H        12.16339139733594    5.91195198575474    7.01498972034723
H        12.03194873659381    5.23260161216062    4.64062332741917
H        12.14055796414319    3.84764393190677    2.99359451602159
H        11.79343062880482    2.93619620275401    0.72072226506876
H         9.49364897098397    2.22957006991722    0.05122650141163
H         7.63878256455602    2.50183842111648    1.69740680067268
H         4.06469936919313    1.06514968493678    5.69740979881640
H         1.84875435797828    2.02728906943035    6.22187748613554
H         1.00757424485226    3.96006823231652    4.93518871976532
H         2.35958774753699    4.88675006109142    3.08937998331738
H         4.56043821545602    3.90436206959869    2.55855374020455
H        10.01499693461468    1.56876231933390    7.59504341074691
H        12.43269517031288    1.98408092183632    7.85688011794521
H        13.94298342574170    1.74893093713251    5.91932850273363
H        13.03301808307172    1.05098897811697    3.73187368188823
H        10.60652490190477    0.65360219971348    3.47550158294347

