71
CSD_code = CEJXUM | q = 0 | S = 0 | Stoichiometry = C38H26Cl2N4Pt | MND = 4
Pt       -0.99191522652149    6.72485335770186    4.25376200734164
N         0.39803854280131    6.56366546875171    2.88807365976365
N         1.92934580713895    4.01501460514854    4.76864300257664
Cl        0.57805283181453    6.95012093832680    5.97771378690050
C         0.61413185311449    7.43885314255747    1.90793857980045
H         0.02504260478565    8.34756392650117    1.93931568632636
C         1.53546601269042    7.21609874485508    0.90225557937989
H         1.68121257687293    7.95647414241778    0.13261200195907
C         2.25684202000209    6.03075780962578    0.90544993813551
H         2.97884342031058    5.82063795990909    0.13156801599152
C         2.03114987059216    5.11974624185913    1.92023133948304
H         2.56706889488169    4.18400741273727    1.95461920964313
C         1.09210618261136    5.40814105862176    2.90734172560880
C         0.86670761107222    4.49476370311215    4.02927901474103
C        -0.32115750213344    4.01065378197903    4.55053836935692
C         0.03032450495221    3.21228961787903    5.68200161356610
C        -0.72328438189223    2.48979473838794    6.60676669045286
H        -1.79946717750086    2.45306512371304    6.52101134046203
C        -0.06194645425289    1.84508973926405    7.62532274472514
H        -0.62146057301926    1.28176563072549    8.35762707103845
C         1.33044131752091    1.91389483038808    7.74377610857434
H         1.81178107497769    1.40785600124015    8.56749266141151
C         2.09766123531355    2.61517758082712    6.84008430415845
H         3.16995500538151    2.67982875193574    6.94559654925289
C         1.43861260500174    3.25364353867848    5.79560532799575
C         3.27556090934579    4.39262744217255    4.60766943330354
C         3.62737113969864    5.73728456015291    4.56701610100662
H         2.86560709623259    6.48917258093164    4.70643891078788
C         4.95201801390188    6.09177152197929    4.39254266976117
H         5.22471171653979    7.13598928683636    4.36546687671479
C         5.92724060759912    5.11576865365995    4.26667535637572
H         6.96084721774300    5.39758199562402    4.13283211598928
C         5.57670860166713    3.77718159151734    4.32185107506473
H         6.33542280408686    3.01404974810783    4.23021723882290
C         4.25319993167624    3.41091288541755    4.48815624423944
H         3.96999050404105    2.36884880465602    4.51905017627124
N        -2.38226362701623    6.56266285038473    5.61899161721731
N        -3.91329512593544    4.01506525654527    3.73542107482739
Cl       -2.56150346052552    6.95158710671374    2.52945027951760
C        -2.59861009626292    7.43709683792894    6.59974601283450
H        -2.00839706097674    8.34513541543040    6.57007837032028
C        -3.52151226316428    7.21441304794012    7.60400460809658
H        -3.66737189170348    7.95416013286022    8.37422990842857
C        -4.24435642604205    6.02996958973891    7.59860876479805
H        -4.96772957161532    5.81997881185093    8.37124562692214
C        -4.01828429487492    5.11965388416707    6.58330027539712
H        -4.55521980837652    4.18455791889403    6.54729567851054
C        -3.07752208038212    5.40788051052238    5.59775225998113
C        -2.85129845489401    4.49487743518299    4.47572182801329
C        -1.66301361675291    4.01044515385499    3.95572840661489
C        -2.01349694920673    3.21176744237121    2.82419522982244
C        -1.25899716971724    2.48867775822566    1.90061851076209
H        -0.18292822772225    2.45170459413744    1.98766552461070
C        -1.91932872358242    1.84361738951406    0.88164538995829
H        -1.35914024922527    1.27973242227354    0.15029149497940
C        -3.31156308277398    1.91276187372108    0.76159761724446
H        -3.79210955792516    1.40646988863163   -0.06242524865707
C        -4.07963361700031    2.61461919733013    1.66412616280514
H        -5.15178137180956    2.67947387928099    1.55730317824210
C        -3.42164159795150    3.25332125762688    2.70913985980188
C        -5.25960908373478    4.39339494973252    3.89398653973173
C        -5.61089220924413    5.73820934893890    3.93399502588566
H        -4.84847580112244    6.48978324053203    3.79652071898258
C        -6.93581872546062    6.09330242635138    4.10508438478817
H        -7.20806965517018    7.13765303248135    4.13150566491289
C        -7.91184944614558    5.11776842715278    4.22824543741783
H        -8.94568892769570    5.40006572012731    4.35924687717973
C        -7.56178070426553    3.77902313060899    4.17398598388763
H        -8.32108555450706    3.01623641217837    4.26358025244144
C        -6.23801666763576    3.41214485318343    4.01108499741082
H        -5.95524609862525    2.36994188537947    3.98088915933201

