71
CSD_code = CEJYAT | q = 0 | S = 0 | Stoichiometry = C38H26Cl2N4Pd | MND = 4
Pd       -0.97571966819446  -12.80556907061741    4.23802597990848
Cl       -2.59310846147672  -13.18517996450092    2.60264737833836
N        -2.32471338301726  -12.69195689264912    5.61834720249197
N        -3.89813549664265  -10.16892245877530    3.71947991596396
C        -3.06520611760955  -11.56998121006259    5.58952283277706
C        -4.03431523331970  -11.32660889890837    6.56130418935610
H        -4.60942073249404  -10.41453802516655    6.52540241901881
C        -4.23926416790293  -12.25821950121212    7.56196104883670
H        -4.98414933271967  -12.08661282898701    8.32373434090116
C        -3.47227317119263  -13.41464040552078    7.56796244425023
H        -3.60581175233741  -14.16949359739174    8.32567894263554
C        -2.52111540852956  -13.58853609535722    6.57832935831095
H        -1.89276139110160  -14.47348620891017    6.54689874249640
C        -2.84645629943151  -10.65929905063173    4.46506312614608
C        -1.64445133632769  -10.21766109409252    3.92881001988864
C        -1.98133195277269   -9.42892307037568    2.78433127009135
C        -1.21560523556887   -8.73705752657544    1.84533997332799
H        -0.13838650265777   -8.72323983911629    1.92610024440437
C        -1.86708158995561   -8.09359830540756    0.81984819640668
H        -1.29835010458171   -7.55431199561392    0.07676800374131
C        -3.26147835771303   -8.13228744956997    0.70822493848602
H        -3.73449422029829   -7.62816493426140   -0.12133019305200
C        -4.04051254993510   -8.80108216568432    1.62604063088056
H        -5.11455818918996   -8.84197456850938    1.52759694261822
C        -3.39161291919896   -9.43898752451071    2.67730923473887
C        -5.25139594198194  -10.52949019254488    3.87473124445546
C        -5.61884375566068  -11.87016733897616    3.89428930870243
H        -4.86452740661638  -12.62797642820680    3.74314775344207
C        -6.94860817100333  -12.20952841480071    4.06090954675844
H        -7.23540323440576  -13.25019013681340    4.07130347524453
C        -7.91096564074067  -11.22243547719169    4.19985590676025
H        -8.94849515815800  -11.49254326922057    4.32758820203851
C        -7.54359556737684   -9.88764125551394    4.16480948768756
H        -8.29280048104635   -9.11635768161892    4.26577412917279
C        -6.21502747344993   -9.53604392500519    4.00575368104871
H        -5.91773197340800   -8.49754953326418    3.98845585002100
Cl        0.64169144370309  -13.18544520563565    5.87359838432855
N         0.37331119822514  -12.69184655648236    2.85774634972981
N         1.94684617441995  -10.16900448246356    4.75694542161786
C         1.11396136643864  -11.56997664523575    2.88677848509247
C         2.08316006798745  -11.32659959342590    1.91508734451427
H         2.65839934319089  -10.41461929203846    1.95115987763797
C         2.28798185851032  -12.25805996634872    0.91426462434217
H         3.03289694135351  -12.08642310822388    0.15252914721094
C         1.52080709543479  -13.41435711728922    0.90803234847138
H         1.65419376051016  -14.16905946094842    0.15014017042495
C         0.56961471533791  -13.58829436216465    1.89762319376051
H        -0.05886067503752  -14.47316355503150    1.92889112158993
C         0.89520910636664  -10.65935563472210    4.01128695651700
C        -0.30681816629549  -10.21764963610582    4.54743428378721
C         0.03000224332712   -9.42888088502924    5.69190651655492
C        -0.73576940023187   -8.73690607979968    6.63078245289001
H        -1.81297893201651   -8.72301855048238    6.54991503118896
C        -0.08434866355210   -8.09342656939545    7.65629799728393
H        -0.65311296666677   -7.55405146629384    8.39928540678171
C         1.31003379567227   -8.13222593797778    7.76807486316792
H         1.78300171987590   -7.62808023002495    8.59763661323894
C         2.08911311717851   -8.80111553020235    6.85036488491120
H         3.16314815592421   -8.84206072370676    6.94890236750942
C         1.44027182871425   -9.43901620086073    5.79905383070808
C         3.30012685796420  -10.52956602259890    4.60183492738171
C         3.66761717776405  -11.87023188231194    4.58242911113170
H         2.91329909338933  -12.62805139876575    4.73350506585001
C         4.99742112475300  -12.20955776226470    4.41604519485465
H         5.28425783880202  -13.25020956744886    4.40578938186741
C         5.95976768680474  -11.22244336992514    4.27716899501043
H         6.99732699934509  -11.49252601713717    4.14962381766317
C         5.59234813805891   -9.88765744319880    4.31204084214330
H         6.34153809506661   -9.11635652663884    4.21110410320761
C         4.26374396045373   -9.53609550409708    4.47086998940718
H         3.96640627721847   -8.49761138015090    4.48803512992960

