97
CSD_code = CEJZIC | q = 0 | S = 0 | Stoichiometry = C49H42N4OZr | MND = 9
C        16.77635280921630    5.86473984235484    6.27813249374674
C        17.10655051418424    4.51096375439835    6.02523712944281
H        17.12605722372288    4.03407284758189    5.06335546216283
C        17.41201300346607    3.93324193702396    7.24017778055663
H        17.71967185604752    2.91917202761117    7.41488797207527
C        17.27547427378709    4.94116616017228    8.23726452708215
C        17.56451059318093    4.93895207462293    9.61633489210247
C        17.54244607367872    6.10386666719201   10.39634995874152
C        17.88450889586651    6.20792131259813   11.78349645599849
H        18.18821501137597    5.38598088134081   12.40440904538890
C        17.76322925651573    7.51844478268962   12.14149888106302
H        17.96434155549906    7.94950630357350   13.10365414713277
C        17.33471102375182    8.24589669980904   10.98094044377167
C        17.10703191405394    9.63566278456958   10.88786399446324
C        16.80424534708528   10.33377136351524    9.69942395635459
C        16.58793498506162   11.74526031456669    9.55529809806326
H        16.61694773872899   12.46313782023068   10.35248598361991
C        16.33303352873171   11.99021726054024    8.23802544981370
H        16.13358004680424   12.93913892151077    7.77608245494983
C        16.37025119772939   10.73578311082775    7.54826886627135
C        16.18018221995306   10.53831364747631    6.17310097120975
C        16.22036492768451    9.26212789367295    5.57657982666659
C        16.22788366367585    8.85113080353807    4.21272887256814
H        16.13832894718558    9.50217522698840    3.36333229124522
C        16.39715819199237    7.48208032226519    4.19591182844725
H        16.46373862466882    6.85299215434372    3.32824323019620
C        16.48522265978724    7.05572877781220    5.54366237891475
C        17.95689467235211    3.65783613728600   10.25203521454452
C        16.96873484072492    2.77034582050434   10.67638209751057
C        17.34251649941032    1.56944873614413   11.26017090648924
H        16.57708724935112    0.88170334363256   11.59216099295244
C        18.67805722927971    1.23291592844880   11.42303140588130
C        19.64771665657515    2.12631188418072   10.98806726753402
H        20.69196555357564    1.87143303706389   11.10483839273228
C        19.30621368923579    3.33576619693646   10.40397197715761
C        15.52311973351657    3.12141045919951   10.48666731348633
H        15.32006186259427    4.11996675988505   10.87245269569573
H        14.87971600670134    2.40685759832665   10.99408913492859
H        15.27642501400167    3.11916625528840    9.42459242698475
C        19.07395578580565   -0.06058391269377   12.06948870892147
H        19.36724462711773    0.11325736731359   13.10528449162779
H        19.92202947917405   -0.50590391604307   11.55325048193454
H        18.24766730908262   -0.76719635434923   12.06433966410266
C        20.35945664221715    4.29085511804728    9.92952066835138
H        20.18520737011079    4.55941564168902    8.88834234338487
H        21.34979797629998    3.85197529319617   10.02168551019174
H        20.32820069243416    5.21038093635418   10.51344782780167
C        17.20693648421632   10.41905703155425   12.13805118762932
C        16.38086905946849   10.12418618662348   13.22276465606735
H        15.66629836804576    9.31780451610257   13.14010615067987
C        16.45526528166906   10.85493055252033   14.38757861639490
H        15.81442489133786   10.63531671991994   15.22703553500667
C        17.36502106195789   11.90692469974946   14.50733913311741
C        18.19950254533877   12.20239823788107   13.43542137350191
H        18.92189205518329   13.00130701790952   13.49630706033996
C        18.11455370499639   11.46288450647568   12.26840778808165
H        18.77773990766182   11.69188089255096   11.44718830368926
C        18.23797619806730   13.64950101890125   15.87375669416357
H        19.28301763192111   13.33144671402748   15.79821969248969
H        18.04922344237564   14.02554686378776   16.87810913566697
H        18.04717832113858   14.44679434271412   15.14797835085225
C        16.00232576108051   11.72233283461918    5.29689816473060
C        14.72166186940841   12.15115344330881    4.94734900033086
C        14.57952010682567   13.25034130523464    4.11604893429505
H        13.58813591731804   13.58607046058250    3.84486117422488
C        15.68513404809998   13.93064945143706    3.62322813107368
C        16.95005445397683   13.48855609302319    3.97922213932846
H        17.82000536757995   14.00751165376513    3.60119142018621
C        17.12521317477067   12.39156685140867    4.80984653726634
C        13.52153990638242   11.43607608939575    5.49269326087643
H        13.61116207572299   10.36193221625192    5.33245629742077
H        12.60976916479588   11.79060444891471    5.01816998301803
H        13.44392577743376   11.61256118342627    6.56635693572380
C        15.50117103804575   15.11259393087851    2.71931360660745
H        16.45393023175457   15.58828410673394    2.50123540759379
H        14.84127695269338   15.84637594076416    3.17984199582111
H        15.04706737149423   14.80141467680474    1.77880677155265
C        18.49729482801053   11.91950622017180    5.18535169496839
H        18.64180069418135   11.99420637682966    6.26276261209338
H        19.26039548568549   12.51228602745944    4.68713191262759
H        18.62617577292327   10.87318485390021    4.91069026422156
C        13.63555268803361    7.37514253377065    7.69101612227333
H        13.31027570499841    7.18676065929311    6.67243969259128
C        13.96100402184359    6.38824862091083    8.64986169518988
H        13.92360966555979    5.31563242073141    8.49159141743852
C        14.17563132719001    7.03639915258675    9.88791088413149
H        14.33148486230662    6.54780294518435   10.84422700770287
C        13.98224027426840    8.42268766701139    9.69532576761265
H        13.97023337552917    9.17794433868095   10.47470691491526
C        13.64988100333112    8.63293133323831    8.33753085538722
H        13.32963808949569    9.57343194698650    7.90383598160297
N        16.87465962225763    6.08771667506450    7.62080206101074
N        17.22694113090895    7.36576390414604    9.93715176744622
N        16.66559612543435    9.74850717762927    8.46711230829194
N        16.35803055145869    8.14947057006593    6.34940169701928
O        17.35443294800955   12.56944067232328   15.69889608897456
Zr       15.97777468482483    7.80392389350157    8.35710290250209

