112
CSD_code = CEJZOI | q = 0 | S = 0 | Stoichiometry = C54H52N4OTi | MND = 9
C         1.28052261951744    7.22679257592411    7.39259432242348
C         1.87569676923687    8.44714800974918    7.73203006029807
C         2.64927545889549    9.25424732023175    6.83850501633900
H         2.79206904742721    9.05540182298294    5.79373615606026
C         3.17557623026355   10.26941056673932    7.57345914845423
H         3.81788176420430   11.06401748780122    7.24290869329589
C         2.73233072102322   10.09179122323620    8.92007963414769
C         3.15605094890955   10.87520641722339    9.99571744399602
C         2.73762070250555   10.57115885312848   11.29230393169724
C         3.17385980114085   11.09932800961153   12.53997162377731
H         3.84300872951612   11.93057630612862   12.65999097290795
C         2.60565351173954   10.33036216018363   13.52647445301863
H         2.73155231053761   10.43078180992939   14.58797705153618
C         1.83112590763281    9.34405109071751   12.87246752552480
C         1.17492571038893    8.14490817481590   13.22007292868903
C         0.98735049048628    7.36420962863457   14.38477369766370
H         1.22830358424689    7.66186441336372   15.38788233068210
C         0.47000184627924    6.16083133391794   13.97017269054735
H         0.21954430502926    5.31115442123860   14.57707067081840
C         0.34676785177204    6.22256817523551   12.55382123049970
C         0.01484127030963    5.22472661916822   11.63534802997039
C         0.13785289150744    5.46722923053948   10.26474247848100
C        -0.15790478245403    4.50847215061190    9.24830586645722
H        -0.57336584230590    3.53505397852767    9.43017111725152
C         0.18108191234219    5.06688622207446    8.05612420141660
H         0.08432107783472    4.63655037923617    7.07775221819702
C         0.70565994913653    6.36858124337205    8.33680386716999
C        -0.24475916200071    3.84434839888388   12.11242589191309
C        -1.46626733769676    3.45919759169206   12.66213757121580
C        -1.63591467699346    2.15199245899934   13.09900231875321
H        -2.58835637607386    1.85918818589728   13.51906544820339
C        -0.61499238471892    1.22075308378945   13.01255269660957
C         0.60326308509199    1.62523602273498   12.48274838896191
H         1.41478038646462    0.91306348302087   12.42380988438905
C         0.80457515647853    2.91995741540213   12.03534518930072
C        -2.60593454406686    4.42790063097816   12.76914938194182
H        -3.09263324827769    4.54405576741868   11.79995562243606
H        -2.25021061258313    5.40247009925146   13.09628373771227
H        -3.34841192623480    4.06979184374003   13.47858080765399
C        -0.80518514245546   -0.19123020160563   13.47870472593225
H        -1.77391084715950   -0.31738576939989   13.95563279001649
H        -0.02705344702459   -0.46654206479332   14.18909577027242
H        -0.74307777844663   -0.87853348937817   12.63516372182714
C         2.13945784708737    3.32691175480873   11.48531894982617
H         2.89368364038916    2.58022815347324   11.72230967045570
H         2.44879091540330    4.28760085556416   11.89559012352246
H         2.08824572856094    3.43384016657668   10.40169106744539
C         1.38075019004746    6.76965063506322    5.98996035978424
C         2.07324697123776    5.60552057970717    5.67790010900392
H         2.54151079223808    5.04126610492095    6.47130460067225
C         2.19407756730373    5.16402501672114    4.37184262366540
H         2.74591410606863    4.25793761524639    4.17585420073014
C         1.61448589784085    5.88969697945794    3.33762085394310
C         0.92205477808462    7.06264723761458    3.64076121825667
H         0.47780955987621    7.61866499516137    2.83012226420803
C         0.81221378930809    7.49499514981392    4.94406759250796
H         0.27039548742934    8.40391174712456    5.15713824884193
C         2.35477666310485    4.38344851662911    1.65002032582648
H         3.41429840840061    4.43845229985971    1.92125457823987
H         2.26478125503581    4.31569291747079    0.56693920356016
H         1.90924099223603    3.49279968894323    2.10546799145067
C         4.24252845410746   11.86605777417775    9.79796332714833
C         4.00176759936905   13.23942038207723    9.76661846469651
C         5.06498468474559   14.11289250790300    9.59694468324681
H         4.87488342747607   15.17704996568519    9.56922768421895
C         6.36731041392622   13.65342932241989    9.46568858500791
C         6.59234154713631   12.28638601511705    9.51591219323651
H         7.60269628680760   11.91140170929641    9.42804596736241
C         5.55104658564660   11.38621047419453    9.68361478418879
C         2.60650820903160   13.77207936552769    9.89445602792280
H         2.61785194259829   14.84542745242807   10.06873864565619
H         2.08841001240197   13.28743893498554   10.71986184661575
H         2.04898630334106   13.57848982693289    8.97822951388315
C         7.49585072081589   14.61992715418257    9.26638797876658
H         8.45623903999992   14.13425805149720    9.42010810081199
H         7.41093722766255   15.45796534084703    9.95579885191244
H         7.47257366367343   15.01921055856172    8.25204393513113
C         5.82980106758130    9.91397725453022    9.74867929800308
H         5.29880351349735    9.45799296878909   10.58372903784075
H         6.89548150123412    9.73091469973261    9.86371181974143
H         5.49092691122893    9.42182205348495    8.83680508837084
C        -1.69925904313116    8.32290861364600   10.09311690884488
C        -1.17938299082384    9.13219682312363    9.04772948371796
C        -0.63172304107697   10.30801578657076    9.62905382721064
C        -0.80709402174880   10.22479423527917   11.03628398920022
C        -1.46971438893661    8.99781522158835   11.32406954937874
C        -2.57437040300600    7.11981562420453    9.89937905834596
H        -3.62322926752038    7.42857761011678    9.86985204636873
H        -2.45343251533510    6.40830238149671   10.71266139874827
H        -2.34612146425541    6.61235624682598    8.96335193362345
C        -1.43797589204777    8.94369438541465    7.58186735848931
H        -1.39241348709310    7.89498316970641    7.29115643122732
H        -0.71659485732530    9.50242087775255    6.98842260762838
H        -2.43694405073693    9.31688952664931    7.33736886023624
C        -0.22365169019828   11.52870748620128    8.85802075588927
H         0.48741130725072   11.29433879377693    8.06578395795341
H         0.22290023118037   12.26655171702529    9.51774351190338
H        -1.10584521944713   11.97821192268759    8.39397480743333
C        -0.58787605150177   11.33608494325703   12.02217939296664
H         0.28493943363559   11.93472898649100   11.76511149278212
H        -0.44617140289516   10.94572099002812   13.02897051593742
H        -1.45972072510438   11.99624641927136   12.03467233640941
C        -2.07274485884372    8.63982306775678   12.65125160587599
H        -2.99213356313849    9.21229296657708   12.80251419970545
H        -1.39729197233258    8.86654146961483   13.47631524682944
H        -2.32477837637503    7.58260852230649   12.69463882488404
N         0.63024380661373    6.61547087079029    9.68326123489789
N         1.91666729536951    8.98317939648823    8.99238189557581
N         1.89669616049846    9.52294895860580   11.52678276409106
N         0.75686596286323    7.45192886020688   12.12825550690555
O         1.66544442229899    5.55238977093883    2.01728630762534
Ti        0.63512102979193    8.46153904813257   10.41870106515138

