52
CSD_code = CEKBUR | q = 0 | S = 0 | Stoichiometry = C28H18F2N2OPt | MND = 4
Pt        2.51959884143953    1.03737705742178    2.56410323514805
F         3.36380729046222    5.05514330499247   -0.68209906743949
F         5.96880124203942    1.29939893887058   -1.65393554957631
C         0.25877158108988    2.84850474604210    2.87835412184403
H        -0.09372559785699    2.05606579404216    3.52619946906084
C        -0.42139915967862    4.04727265571820    2.77533613767553
H        -1.32819917076271    4.20543129446683    3.33637430908781
C         0.09275213834233    5.03120484857080    1.94296031256443
H        -0.40380189888225    5.98437621024540    1.84390903192690
C         1.25177179028808    4.77372035877905    1.23466389917332
H         1.66014396970583    5.52744552546173    0.58466011945658
C         1.88520587083941    3.53824874175073    1.36811945821754
C         3.05043002494858    3.07534789116940    0.62459521023935
C         3.69698316463757    3.77487659242083   -0.39364454851412
C         4.69975101575969    3.21019747085001   -1.15362932905315
H         5.19124296164761    3.77176688697054   -1.93028103764657
C         5.02293302498556    1.89068493629566   -0.89444328083516
C         4.42481069262526    1.16631964682443    0.11758316072246
H         4.73166239967519    0.14128280806361    0.25076635630132
C         3.46171903873696    1.75069676014060    0.93506231439363
C         1.23191473347844   -0.73516456017086    4.67609514034725
C         0.11134548743617   -1.09222727132371    5.47597643197241
H        -0.67663916174851   -0.35965823129878    5.57511878403658
C         0.01591539489560   -2.31250354192353    6.08063058125526
H        -0.85875840234741   -2.55510744554559    6.66732030277055
C         1.04414120185414   -3.25664814637435    5.95355436727677
H         0.95901059753331   -4.21592897053990    6.44031144486231
C         2.15185219622034   -2.94453695389287    5.21699607835836
H         2.95646855698602   -3.66072302969564    5.11771742726122
C         2.28009989832384   -1.70491545443843    4.55497714154359
C         3.49072231825164   -1.43746819119448    3.87397385766937
H         4.29043386348271   -2.15628011804984    4.06970074632451
C         5.12334587289325   -0.32900029579826    2.66869055100756
C         5.74739808365405   -1.39594799803606    2.06171486088162
H         5.20919911110037   -2.32380742751187    1.92788546962946
C         7.04461344953005   -1.27323695706600    1.54868951635000
H         7.49939020558006   -2.12351845699648    1.06321263451192
C         7.70993876712837   -0.08302797438339    1.63233950183794
H         8.69674020912421    0.02638302126741    1.20829904676953
C         7.11748003741373    1.02728136379668    2.26958300984875
C         7.78651024511807    2.26600094262416    2.36156439938388
H         8.76731577899287    2.35501152293220    1.91744156061638
C         7.21050929178300    3.32985267693462    2.99563557414837
H         7.72651376068162    4.27672059639900    3.05363854332897
C         5.94980059828508    3.19314953424962    3.59495707908171
H         5.52079193327186    4.03145236694105    4.12340047176770
C         5.27084221498225    2.00821192340063    3.52093481345924
H         4.31014453365294    1.90794353429301    4.02690592793325
C         5.81868626525326    0.90564178600035    2.82851715045769
N         1.37737063897709    2.59954030921262    2.20365589792162
N         3.78835548010417   -0.42414873768585    3.10935759189591
O         1.26438761798168    0.42489771467818    4.14464977276088

