99
CSD_code = CEKBAY | q = 0 | S = 0 | Stoichiometry = C44H40N10NiS4 | MND = 6
C         5.93249527659558    7.69279360666169    1.66115532383445
H         5.77680823259956    6.64675272819149    1.44320567638636
C         7.11693216807385    8.31562692764855    1.31733586833688
H         7.90492981832833    7.75145864290405    0.84159761347949
C         7.29812907254166    9.66297767688062    1.58340141699259
H         8.22775859925357   10.14471146961594    1.32127697853202
C         6.28449887924778   10.38847811795535    2.18932943684747
H         6.42023381580594   11.44133588814016    2.39305136577124
C         5.09636600384336    9.77161636672198    2.53540941976508
H         4.31321740439456   10.33599646023262    3.02221588816872
C         4.91073309049952    8.41304397355303    2.28059102778807
C         3.65834194091678    7.75289061587616    2.64728940333046
C         2.41826230292067    8.55389597595386    2.59700834707671
C         2.10155363413606    9.29123944087341    1.45844127221832
H         2.76138636519203    9.25528583541798    0.60343200542312
C         0.94844832849398   10.05261877957072    1.42157399098384
H         0.70620215273913   10.61633997422327    0.53275275065002
C         0.10694447979202   10.09645902029420    2.52165734223973
H        -0.79229132962629   10.69342311320059    2.49064151226097
C         0.42377653230248    9.37907045189281    3.66354624537435
H        -0.22384260563021    9.41913846885820    4.52670222421477
C         1.57010048678725    8.60708964377527    3.70355127263638
H         1.83136352532441    8.06708196241951    4.60352565607348
C         2.56170984777139    4.63980612100320    3.86017394309320
C         4.78476184350630    2.66510359056762    5.71450245770664
C         5.85471534205170    1.12404139758840    7.22745847480522
H         6.78546250032742    1.24370365980409    6.67146855649433
H         5.74594025886112    0.08552633067224    7.52925451816219
H         5.90548648654439    1.76474083047904    8.11110014665871
C         3.60306918201687    0.64809279737761    6.35524186564110
C         3.01667116215535    0.27644167605720    5.14779468194768
H         3.43837717681199    0.61982105893554    4.21525506848470
C         1.90706831909289   -0.54788364687971    5.14230333003975
H         1.45615331525782   -0.82163509432298    4.20086621591291
C         1.37992757065286   -1.02024772674053    6.33230194664391
H         0.51225043809799   -1.66172841906093    6.32455882610607
C         1.97260473232888   -0.66706177169404    7.53272168113367
H         1.56774990471534   -1.03226137077261    8.46467944425509
C         3.07800838162631    0.16361256451242    7.54962636380387
H         3.52482519866244    0.45068860095044    8.48925456803022
C         8.67164517894374    2.34433150196449    3.07386668671704
H         8.48009466824991    2.77758358853546    4.04618893156216
C         9.80824150177937    1.58624874962010    2.86176922450953
H        10.51761178545319    1.45074353183880    3.66456313626149
C        10.03633334774113    1.00436048388951    1.62551431756728
H        10.92798586114611    0.41813136962440    1.46045474113372
C         9.11601995540823    1.16980639391851    0.60283425158221
H         9.28932487420585    0.71169168933668   -0.35974973642381
C         7.97236750301705    1.91777866628210    0.81110712290260
H         7.25135226899539    2.04815211152837    0.01684205010768
C         7.74416732319680    2.51967750328425    2.04637557668861
C         6.51481902688907    3.30460113002579    2.28020052137522
C         5.23553085821738    2.68507881695481    1.93634029025358
C         5.06485134688532    1.30517364350686    2.04556519849559
H         5.88082500973316    0.69229636130372    2.40248346848574
C         3.85142829105324    0.72631860085935    1.72233250953107
H         3.72784422676371   -0.34374181101672    1.81254713460795
C         2.79698290013595    1.51180100093809    1.28403377141722
H         1.84821354612031    1.05878989894392    1.03988086252696
C         2.96228309944525    2.88181963513362    1.16271947831817
H         2.14219899640548    3.49314335528497    0.81731821833060
C         4.17193599591389    3.46682676548396    1.48449800932099
H         4.31428225662122    4.53185476063102    1.37777009810047
C         7.71577052125815    6.26254830174041    3.75434993424852
C         5.65188865663653    8.00031765565301    5.99056410225746
C         4.70763345007122    9.34945427562284    7.74965544548445
H         3.73710385342845    9.29684233959440    7.25456033762326
H         4.84661584087133   10.34392469685145    8.16565670553000
H         4.71776594084661    8.60636814379534    8.55063733138261
C         6.88825172973519    9.93467528183644    6.77013428854524
C         7.38380075684961   10.44631977071194    5.57321395948626
H         6.89248056856934   10.21069681829912    4.64128635771966
C         8.49225361990587   11.27224138347108    5.58010825051476
H         8.87226950583046   11.65528344888361    4.64552691674813
C         9.10826153550426   11.60760436360942    6.77390067452341
H         9.97452499111557   12.25103893562212    6.77545847923786
C         8.60627396320979   11.11474532297785    7.96643118058399
H         9.08070530424296   11.37246024764837    8.90148802031284
C         7.50304099064200   10.28108837233803    7.96980015811930
H         7.12734013374590    9.88473958075673    8.90078216744639
N         3.69513170639778    6.51385270764183    3.01118684070988
N         2.54777903594994    5.82995512546380    3.18849025431190
N         3.73642994946257    4.27998126652247    4.35610698197395
N         3.73213672288857    3.08475086624488    5.02633967016831
N         4.74120638994202    1.48541812695349    6.37641366202118
N         6.51129835008198    4.49386265922333    2.78496298970866
N         7.67211045366901    5.15765040596062    2.95115385280325
N         6.58460029454133    6.55794232722035    4.37770858343703
N         6.64608802065681    7.66804874498570    5.17878602725073
N         5.75194213745766    9.09482441205147    6.78035538706414
S         1.16132298099611    3.73360443620204    3.98973116976670
S         6.16951186481373    3.64019276747847    5.77429083771078
S         9.12635593463567    7.15342626103832    3.87885135356412
S         4.27100522813370    7.01938042217799    6.04322570098018
Ni        5.15856746240833    5.42172067881150    4.32014795977283
H         1.64836787101859    6.24655789560771    2.96192932048787
H         2.79562177265126    2.65032348210302    5.04606635861581
H         8.54939991692964    4.77340012214913    2.60976052314855
H         7.58337288756080    8.10110486554519    5.17702822606827

