46
CSD_code = CEKCAY | q = 0 | S = 0 | Stoichiometry = C24H18N2OPt | MND = 4
Pt        5.47904744688631    3.21384619678778    1.77228161338486
O         6.94124487076599    3.38898048622787    3.30496263353981
N         4.50852247086352    4.73725109799127    2.63293123839726
N         6.34833181988367    1.59187892980616    1.07073557809364
C         2.32592295279767    3.74841095311586    2.42386165908010
H         2.78707283118417    2.79742267882389    2.66942788359022
C         0.97172295494579    3.84411832823062    2.17348872077455
H         0.35432864252983    2.95981570294611    2.21958269573601
C         0.40542173105309    5.07046527696836    1.86245043027798
H        -0.65255517023857    5.14357074198823    1.66094369167528
C         1.20116918630130    6.20166988954822    1.80533442034063
H         0.76592453645108    7.15777372645135    1.55438634512775
C         2.55812842831272    6.11596053467477    2.06131251221874
H         3.18082833852165    6.99613137562943    1.98566870420945
C         3.13257327833129    4.88407878110764    2.36515533789456
C         5.02332721524460    5.57287465555281    3.49404269875903
H         4.36555090545343    6.36584252127289    3.85961307807692
C         6.30328052149051    5.55511710143509    4.09399168244934
C         6.66955007982146    6.64941260778914    4.90655839065603
H         5.98414126366121    7.48367945737027    4.97690649878758
C         7.85704497143367    6.68104484864870    5.58117064750106
H         8.12403550523135    7.53347429841512    6.18688000059088
C         8.72932066306580    5.58721435730185    5.48771318001169
H         9.66678893812439    5.60817483348784    6.02560015178257
C         8.40379255669404    4.49937630121641    4.73101938330710
H         9.07117639414213    3.65249828151524    4.65882482013247
C         7.19060288424561    4.43349781107948    3.98889336969106
C         4.37558462485905    2.96300189216581    0.10696196702170
C         3.46765024489050    3.81272811442251   -0.52145559834610
H         3.26296002590470    4.79112811522163   -0.11268183015453
C         2.80452548905085    3.44266371509825   -1.67996408812579
H         2.10050482546339    4.12582525256722   -2.13388652894156
C         3.03228008965593    2.20401502160719   -2.25920569388684
H         2.49845030445757    1.91309802534944   -3.15210390989939
C         3.96773094982681    1.35685082420918   -1.70258800780240
H         4.17634688956054    0.40873202988863   -2.17643601832779
C         4.64695428261888    1.73463262955887   -0.54497029720768
C         5.73445551231816    0.96519234058606    0.03877496034761
C         6.19310101665261   -0.27476688211959   -0.40491784928617
H         5.69117288970201   -0.77194216809886   -1.21889705445796
C         7.28541622205676   -0.86234124209044    0.20262003852704
H         7.64864093782805   -1.82226169867629   -0.13235280349981
C         7.90916016887589   -0.19514673675190    1.24894401781456
H         8.76931937169171   -0.61510027117421    1.74492042495951
C         7.40381903062113    1.02643507480563    1.65124613731057
H         7.85293090676723    1.57957418806442    2.46595476787100

