52
CSD_code = CEKCOM | q = 0 | S = 0 | Stoichiometry = C28H20N2OPt | MND = 4
Pt        3.47827750049500    4.56803946720295    1.64910910977922
C         5.01108742431543    2.41575259717818    3.16800570442070
C         6.08709723431291    2.03027747459780    4.03938168562845
H         6.57442264832393    2.82630278547251    4.58436537380281
C         6.47811183812221    0.74466145985744    4.17265401555302
H         7.29134230312434    0.48469879246687    4.83668003783147
C         5.85584994137095   -0.29691980400763    3.43221338525417
C         6.31117298791724   -1.61968631337837    3.53506786609107
H         7.13054100630254   -1.83352780050058    4.20716359315216
C         5.73979931060992   -2.62191121061332    2.79409475796803
H         6.09371550369378   -3.63872843911034    2.87687231480636
C         4.70367724789493   -2.31267022000397    1.91253881880287
H         4.26841633031185   -3.09369444163490    1.30566460283323
C         4.23991743713245   -1.02510106409858    1.79917137420468
H         3.46059979864439   -0.82269042912777    1.08029851883602
C         4.77779448128327    0.02012363595770    2.57107830312773
C         4.30944184516973    1.37870928204995    2.48184444513900
C         3.07617436224371    1.64737793821518    1.85122201566715
H         2.42809476449584    0.78190963419970    1.71207784791475
C         1.20658588829140    2.80392774400174    1.12667319248312
C         0.68815671032872    1.88631857729688    0.21525508772776
H         1.33933306939977    1.15735391122751   -0.24594044060806
C        -0.64729359501540    1.94295738849903   -0.14095448397416
H        -1.03681116520775    1.23720186044458   -0.85987084581864
C        -1.47952109698672    2.90144840966695    0.41110443275013
H        -2.52052762903924    2.94093327938068    0.12825698227257
C        -0.97023180718318    3.81325885858365    1.32245951828226
H        -1.61554817626600    4.56287380575850    1.75503280489023
C         0.36223085106576    3.76677834000194    1.67961523929805
H         0.77793277860058    4.47070704085053    2.39476772678599
C         2.54441721555066    5.58631058815013    0.18961300805296
C         1.75679996821062    5.13717439046352   -0.86794157070816
H         1.57314531063483    4.08098443600607   -1.00039729419221
C         1.19003652635520    6.01563824609100   -1.77665195355616
H         0.57872950175820    5.63199246059694   -2.58131981534323
C         1.39640614663863    7.38171022428614   -1.66106613675688
H         0.93829737968675    8.06305422421426   -2.36305620301586
C         2.21136154875105    7.86359997260064   -0.65783443490855
H         2.40079289866276    8.92492662999149   -0.58891016489156
C         2.79400015316580    6.97944670763919    0.24925042744589
C         3.75295501184006    7.37963193210867    1.26716428271389
C         4.16709089562629    8.68301397718151    1.53920620384229
H         3.72608024091828    9.50812692633435    1.00403749660343
C         5.13725907267488    8.91147945808060    2.49543457206178
H         5.46521851940855    9.91647154666636    2.71446328925382
C         5.68476340305260    7.82613899108728    3.16748654287129
H         6.44935754576316    7.96085320360225    3.91551532811111
C         5.22798796818326    6.55837735279801    2.86169950293121
H         5.62013641588331    5.68389554947210    3.36471710617176
N         2.55808733304787    2.80284264280308    1.51976220940954
N         4.29000958159614    6.33637227690610    1.94413905994208
O         4.71952756884164    3.64997570248618    3.11088555905189

