90
CSD_code = CEKCIF | q = 0 | S = 0 | Stoichiometry = C31H54MoN2O2 | MND = 5
Mo       10.54997084855487    7.42277174693651    1.97940006520471
C         9.52511201774257    7.11532239118477    0.32037054758373
H         8.58602857491272    6.53675186262054    0.31339064440756
C         9.79866945547015    7.61281963850175   -0.98283411362158
H        10.72685428339350    8.16841874062912   -1.09698983865332
C         9.02121940167066    7.45677338577859   -2.07149007553513
H         8.08267217763211    6.92080253384540   -1.99216505312859
C         9.34876026140342    7.99112628585058   -3.42595331033636
H        10.31224368044369    8.49563079602301   -3.41736028753791
H         8.58674471142023    8.69954926200904   -3.75705812669413
H         9.38354124797939    7.18461363617959   -4.16062776604021
N        11.96477470226484    7.83272423510456    4.22038848940311
C        11.07302378322752    7.65312111268072    5.36030537432569
H        10.63677986101576    6.65115913666901    5.30043306504615
H        10.26277587757509    8.37976556066763    5.25474199875623
C        11.81792959851044    7.84497486857125    6.69732251815125
H        11.29443362210787    8.56042060640280    7.33374247152403
H        11.88793324147020    6.90315320556650    7.24591004938327
C        13.22355652898399    8.35749247106016    6.37946863647161
H        13.76265434528038    8.58061428462228    7.30530709788899
C        13.96668836254949    7.28666946205397    5.57936286542935
H        14.12475415876202    6.40105730799775    6.19767158451471
H        14.94664930514528    7.66575127174334    5.28549037107608
C        13.11616674753466    6.94476593765941    4.33722797939130
H        13.70723559859678    7.04653021716932    3.42378827741923
H        12.74906203570716    5.91728960303669    4.39256201086015
C        12.43563905617851    9.21490409598029    4.18523018621811
H        11.57804077742755    9.85330943887302    3.96202250019835
H        13.13972045114532    9.29667538728575    3.35511656465806
C        13.10152218921971    9.61448026133054    5.51741825507257
H        14.08953031843272   10.04276842640799    5.34187054608522
H        12.50526905298803   10.36152349478512    6.04472565677252
N        11.95450445152605    8.09954967992784    1.19387051183174
C        13.16497598004793    8.32840976015948    0.66853443753803
C        13.59379523589958    9.65410143482555    0.40381635614469
C        14.84326382217073    9.87145529315361   -0.14501647959670
H        15.16570215326732   10.87989813769811   -0.36136627079311
C        15.69102867026079    8.81535164477885   -0.43207036646011
H        16.66422374136599    9.00149360077615   -0.86260080413315
C        15.28120825050816    7.51688142662411   -0.17902728806637
H        15.94587213475997    6.70160712886249   -0.42560241103792
C        14.03999376447450    7.24949628135438    0.36786907807357
C        12.64072879806814   10.79446795822962    0.67887048643533
H        11.80725117503118   10.38506419744038    1.26827852666581
C        13.29716148474114   11.92545266777840    1.47203297048071
H        13.76112916243611   11.54249539257149    2.37852437145596
H        12.55080891036662   12.66572834623087    1.75451181936796
H        14.06050484215656   12.42647267413498    0.88112909655400
C        12.07199804727840   11.32382060880715   -0.64078407172047
H        12.87120514257504   11.68482472686082   -1.28538225641657
H        11.37890695399432   12.14254664003948   -0.45646021304106
H        11.53821853860710   10.53109568484226   -1.15927488132845
C        13.56739478198795    5.83299665715344    0.59617551623121
H        12.72758222733521    5.87535035322234    1.32189193307943
C        14.65524394203232    4.91897242345269    1.16155217610012
H        15.42151859243018    4.71759299334691    0.41667624857597
H        14.22430563384608    3.96485618144411    1.46128113637519
H        15.13033125431428    5.37115012123411    2.02997323777343
C        13.01155293330483    5.26599954063228   -0.71497588701482
H        12.15240161806602    5.85355699851757   -1.03396712752290
H        12.69782200129893    4.23137183755425   -0.58397294238700
H        13.77146814853797    5.30070541906311   -1.49336893201909
O        10.17290474528946    5.88261810261365    2.77359869604623
C         9.78485727603589    4.57285389627013    2.99649100467007
C        10.76960779131951    3.87264128317225    3.95350190695334
H        11.77358034728132    3.90185650755171    3.53003019165515
H        10.48014974870207    2.83501817227585    4.09884631159681
H        10.77940822158549    4.36638819045432    4.92433579481292
C         8.37241468545342    4.57870717657028    3.60690264887350
H         8.38054544027886    5.10748274537057    4.55979668440382
H         8.01623312434372    3.56468337039166    3.76859863933681
H         7.69049856735222    5.09426400347760    2.93164346015909
C         9.77818833823513    3.82204866301638    1.65326238053598
H         9.05960146972936    4.27981787798311    0.97691478937061
H         9.51752347321361    2.77641302359536    1.79741908060628
H        10.76651150337927    3.89099261776262    1.19747236702225
O         9.69775624670744    8.90665704239413    2.79411147887991
C         8.52169437647629    9.63400493623565    2.64998537060161
C         8.54196124157325   10.39478779700356    1.31400830772871
H         9.34215645406181   11.13230264089423    1.32429821517734
H         7.59441243863678   10.89858495253949    1.14064919806892
H         8.73519442387359    9.68770656274372    0.50639093868975
C         7.31919125645886    8.67473770398433    2.69406305999396
H         7.36793075743216    8.00303710638371    1.83758332245246
H         6.38005582934330    9.22208363205764    2.66581858719318
H         7.35846172719104    8.08450937307374    3.61127916643496
C         8.42035495874753   10.63995945572435    3.81505790723832
H         8.36827024324343   10.11086835355292    4.76539694588056
H         7.53297498991780   11.25819716261704    3.70905633655268
H         9.29890165670032   11.28238117434195    3.82208005362991

