52
CSD_code = CEKCEC | q = 0 | S = 0 | Stoichiometry = C28H20N2OPt | MND = 4
Pt        3.79822687315361    5.58742795196407    1.90622045344737
N         4.98433854684805    7.09020564122344    2.51826217450770
N         2.73708658705651    3.98518876035248    1.48147246008748
O         2.46510585197375    6.11354276927919    3.48541133743746
C         2.36613230184723    7.26490225522096    4.02001337344362
C         1.20698945556918    7.57101315952200    4.78814046405429
H         0.44751044336176    6.80539349933814    4.85772606413062
C         1.04163610645790    8.78099803701560    5.39687565514029
H         0.13997402299253    8.98298283965742    5.95798040161396
C         2.03324335236307    9.76822059211294    5.30816209779382
H         1.89308793634960   10.71947926654397    5.79831715838251
C         3.17472886045159    9.50784827738224    4.60417373547740
H         3.95099427695148   10.25838140061796    4.53427848081474
C         3.37580122012888    8.28080269690643    3.93676626538376
C         4.61708260327915    8.07523794770071    3.29074406319939
H         5.37880198585387    8.82378055177551    3.52553282043417
C         6.33575477097007    7.06082786229683    2.12447918864490
C         7.07799965329388    5.85320859935751    2.28306439250948
C         6.55210131044309    4.71128545171014    2.92649790230264
H         5.56515167911433    4.75562012706453    3.38852486667328
C         7.28071009156421    3.55667367372790    3.00638507731172
H         6.86735545462628    2.68796877320923    3.49704691254379
C         8.57134112763632    3.49053283850637    2.46192310026615
H         9.12796258751397    2.56699235081138    2.52373641841301
C         9.12422820153044    4.59319300398582    1.87558826598948
H        10.12692276269403    4.55828100128882    1.47421702013137
C         8.40361138498918    5.80217200407209    1.77960991496402
C         8.97291991943178    6.95298303264225    1.19536784844976
H         9.98285944886520    6.89813390025131    0.81650361618573
C         8.25908928814037    8.11455854107636    1.10991422901457
H         8.69624443465027    8.99687071882780    0.66632088836287
C         6.93762109758851    8.16820423328442    1.56939724294388
H         6.36594971141508    9.07579018483178    1.43516292605755
C         4.79845908087035    4.97527171944012    0.26748379625866
C         5.75243853602735    5.61314055557785   -0.52091498748164
H         6.02211825301076    6.64077750861559   -0.32658351842964
C         6.37889266462292    4.96469967124726   -1.57203536660816
H         7.12275309419399    5.48868745258528   -2.15558690198662
C         6.06451401306009    3.64964357905519   -1.87788109740356
H         6.57300191969590    3.14129488094047   -2.68407435710959
C         5.07497656033748    3.00511864480344   -1.16556342322659
H         4.79873005531042    1.99521395353387   -1.43173983881523
C         4.43186115299546    3.66289080325540   -0.11754578712251
C         3.28847052457357    3.11862566589998    0.59790924348905
C         2.71725553717660    1.86231895065173    0.39660206578504
H         3.16897305995021    1.17408220330800   -0.29909011564320
C         1.57842141841024    1.50410137578119    1.09096234669798
H         1.12864377958705    0.53383343182120    0.94295722591601
C         1.02076265059823    2.41481375323032    1.97917771239758
H         0.12748684072801    2.17775640576931    2.53423231548764
C         1.63636308439849    3.64081077495444    2.14512261252994
H         1.24451442536288    4.37781672602490    2.83455125912923

