101
CSD_code = CEKCOL | q = 0 | S = 0 | Stoichiometry = C36H57MoNO6 | MND = 4
Mo        0.23360101437529    0.46507165804187   -3.31085055922019
N         0.69827763607611   -1.15234856993371   -2.86185028005939
O         0.32525725158854    1.92311652920906   -2.35964408187628
O        -1.35526382997486    0.15592754561816   -4.17513670054391
O         2.55352253079833   -4.22566044946377   -6.02290170271011
O         4.56900414430183   -3.34863619417444   -6.48196183885184
O         2.04956052438189   -3.06809308085378   -8.88456479006140
O         0.30068721112909   -2.35602511095968   -7.67646707432369
C         1.57508437140606    0.89292590201020   -4.70931479615013
H         1.78872549800881    1.96094110825974   -4.87515772084392
C         2.19533940874071    0.04689752799800   -5.64437990539082
C         1.93135670266873   -1.43903706010701   -5.56961765288522
H         0.85633054650151   -1.64194386873601   -5.53019300123011
H         2.38745290635711   -1.86539009482656   -4.67411525087085
C         2.55662454279747   -2.03688600581445   -6.83918197889590
C         3.43178687545683   -0.91924325600978   -7.43474054474139
H         4.47878834315986   -1.17280798544633   -7.24563786806945
H         3.29321807186851   -0.83123843534437   -8.51220827382375
C         3.02785873710561    0.33558498189340   -6.70191137651929
C         3.42909981072855    1.65410969063351   -7.08398298784606
H         2.94369904925313    2.43201224027937   -6.50496878019697
C         4.28252181394487    2.08602106360501   -8.03056081078586
C         4.47426597149883    3.55925634630924   -8.25080465065336
H         3.81946469175129    4.14948614174169   -7.61432287447635
H         4.26914420611522    3.81497967451284   -9.29136060365217
H         5.50676129251386    3.84422390113391   -8.04171706344410
C         5.10411493812178    1.22620166045601   -8.94707664312057
H         5.50746283699514    0.36022362641092   -8.43260704004767
H         5.93411089678093    1.80348234468917   -9.35059317926344
H         4.50652772620845    0.87473324287959   -9.78938842859322
C         3.37132020303538   -3.26487195576652   -6.45412638961532
C         3.14330295029805   -5.42394020603198   -5.51442470621843
H         2.48088234406642   -5.74888309263151   -4.70933806388975
H         4.13045342216626   -5.18378019248815   -5.10760345902121
C         3.25742521078291   -6.47930560076226   -6.60432389503238
H         2.27491421975354   -6.70530371888376   -7.01177881178002
H         3.68839597020372   -7.38690133148598   -6.19141571820342
H         3.89845700913361   -6.11656622485077   -7.40454654032075
C         1.48640617560629   -2.49138768023098   -7.81963284688262
C         1.16942195376837   -3.58538374918976   -9.88357671294130
H         1.75983981492401   -3.60511084534624  -10.80194928357211
H         0.32225176493311   -2.90095038668704   -9.99687695775943
C         0.67749269482284   -4.97743021090014   -9.51495878303208
H         1.52151470075574   -5.65107114000858   -9.38887348832679
H         0.03196831666506   -5.35819538831931  -10.30142892909771
H         0.11637635401710   -4.93459506414179   -8.58456808563660
C         0.49187954186635    2.77928409079015   -1.28314869488835
C         0.25748970620916    1.96949931994461    0.00289221558207
H        -0.74699354941430    1.54089277816439   -0.01535939305074
H         0.35884209909759    2.59779502132770    0.88411597821607
H         0.98248256170354    1.15510141008762    0.05624459334168
C        -0.52689867555212    3.92536304388768   -1.38961157086151
H        -0.37297775123375    4.47240594281332   -2.31899427041451
H        -0.42097436608528    4.61173500076301   -0.55408228818058
H        -1.53868282203365    3.51893648404298   -1.38862595388480
C         1.92849631839212    3.32454443376501   -1.31833383091903
H         2.62991468780359    2.48866073763415   -1.33062695680879
H         2.12487751601916    3.95045736632851   -0.45210254256230
H         2.07810711106210    3.91173288634516   -2.22338482414481
C        -2.08933070577604    0.72345630636601   -5.21190400386316
C        -3.50886442099704    0.13139438903813   -5.19040149675456
H        -3.45099438875238   -0.94406868478718   -5.34224783696892
H        -4.12180969687533    0.57016892260632   -5.97296199385870
H        -3.97447475633864    0.31914929539301   -4.22367244155325
C        -2.14136768778894    2.24527245925215   -4.98528513612355
H        -2.62715015236843    2.45748212760793   -4.02968823536391
H        -2.69395020451774    2.74408556148442   -5.77788457565412
H        -1.11895352607851    2.63636152057108   -4.96077940836583
C        -1.40598610680616    0.41015849409097   -6.55120184329003
H        -0.40129432404331    0.83422276919504   -6.55909667283915
H        -1.97783713875405    0.82499279022763   -7.37736206143367
H        -1.31856785552325   -0.66696269472629   -6.68303779913900
C         1.22508372736699   -2.31207068198646   -2.44235783200686
C         2.45311701215813   -2.32786866760658   -1.73319181015196
C         3.01017161781018   -3.54149044659226   -1.37388678339044
H         3.95515701542954   -3.56138398337108   -0.85029148761736
C         2.38060485849916   -4.73715900946329   -1.67384405887768
H         2.83116638586221   -5.67467233428387   -1.38165362488938
C         1.17115546739171   -4.72541872931110   -2.34818733669487
H         0.68030670376856   -5.66306235965484   -2.56805882285373
C         0.58531549970714   -3.53857909739336   -2.74590677186115
C         3.14266854261405   -1.02455450332518   -1.40494346169785
H         2.43880709842410   -0.20487238518645   -1.65820909063782
C         3.48971308000569   -0.92810987418021    0.08281415019906
H         2.60942280150676   -1.12126776998309    0.69314830859849
H         3.86826190158037    0.06517268505047    0.31973571582461
H         4.25537233946680   -1.65211910430196    0.35057151055824
C         4.39251312278253   -0.83916689425642   -2.26964000280947
H         4.90305742339349    0.08526856138204   -2.00532683443329
H         4.11704349193435   -0.78973272630909   -3.32095348701951
H         5.08259348821651   -1.66812649778928   -2.12752815889926
C        -0.73183687215130   -3.51953101282474   -3.48596810348633
H        -0.91212168082016   -2.48545916717099   -3.81798926963012
C        -0.70321384986916   -4.42093291407844   -4.72126118924367
H         0.14874312863109   -4.17382498899963   -5.34929896289389
H        -1.61182903252946   -4.28290795911024   -5.30392424208239
H        -0.63743192255871   -5.47002240865345   -4.43946973347882
C        -1.87128096784643   -3.92292779991880   -2.54537578464057
H        -1.72450290817135   -4.93626300898190   -2.17612479746235
H        -2.82601640471153   -3.87970362707933   -3.06603285029997
H        -1.91043130656766   -3.24844335268406   -1.69236301394337

