37
CSD_code = CEKDAX | q = 0 | S = 0 | Stoichiometry = C21H12CrO3 | MND = 9
Cr        0.32083575768631    0.00011640775595    3.36114013426581
O        -2.10601645734379    0.00071575183414    1.63754351991985
O        -1.35961764399580    1.92127908559952    4.89201376747375
C         1.83335898666334    0.70490790698911    1.80847021802673
C         2.06752240111793    1.39173797836963    2.99107126208667
C         2.32213835499006    0.71040547684455    4.21817446113778
C         2.64511557527815    1.43411019605355    5.43351693640084
C         2.55693033194951    2.83283809224021    5.49690027292482
C         2.90739195040515    3.52642472780890    6.62991307061267
C         3.36499239966154    2.83550145638246    7.74475434680385
C         3.43015830973078    1.46267098844803    7.71765018558106
C         3.06258473930024    0.72625900995095    6.58334224999664
C        -1.13704893953685    0.00062927191502    2.26573068124144
C        -0.68006573988159    1.20011117959759    4.30012011739650
H         1.72786597804672    1.24613534564831    0.87566559577570
H         2.15669859983372    2.46839830349803    2.94570009971148
H         2.18610668600882    3.39434338376706    4.65460350004546
H         2.82498505020891    4.60246870047570    6.65217219625177
H         3.65432158186796    3.37263938484139    8.63541098075514
H         3.76818422917228    0.95537801817134    8.60588828113938
C         1.83312303993425   -0.70524777005670    1.80854655972268
C         2.06712125318567   -1.39201314846999    2.99122513742056
C         2.32207222626020   -0.71064559688875    4.21823690488879
C        -0.68070464407972   -1.19981790084351    4.29949907991690
C         3.06267555002708   -0.72631274360711    6.58335910030213
H         1.72742425056507   -1.24654849776077    0.87580825074676
H         2.15594823981827   -2.46870594280686    2.94594652311046
C         2.64523330122639   -1.43426656974547    5.43357978642995
O        -1.36077357875374   -1.92095254172451    4.89083127812580
C         3.43037712045677   -1.46262005972872    7.71769357164692
C         2.55737753819386   -2.83301664898500    5.49699889278744
C         3.36545283823763   -2.83546024054928    7.74485258657529
H         3.76831543136453   -0.95522721424211    8.60590930266551
C         2.90801849730066   -3.52650454461001    6.63001539584093
H         2.18672399309000   -3.39464746104977    4.65471000740978
H         3.65487797584524   -3.37251337509517    8.63553051318892
H         2.82589481616447   -4.60257041002792    6.65227523167402

