83
CSD_code = CEKFEG | q = 0 | S = 0 | Stoichiometry = C24H52N2O4Pd | MND = 4
Pd        4.25079678769689    5.41873827037979    6.28072507575817
O         5.50500389661891    6.65648143872935    7.39521248517881
O         6.65192876414855    6.92649567245838    5.53340365486452
N         2.60434968162098    6.63742898626787    6.94859888444389
H         1.87076848998566    5.92285510609937    6.91078767125055
C         3.26957844891053    9.87668120712462    5.03641972045354
H         4.19555697569702   10.42994960050351    4.90173117128722
H         2.59856574892893   10.47761224626923    5.64797997239293
H         2.81433589551686    9.74453780382174    4.05835821474165
C         3.55740455469678    8.54039943167339    5.71101249790619
H         4.06126081889411    8.74207310354914    6.65774172419809
H         4.24084873326175    7.94553196973198    5.08848292714440
C         2.29327572847608    7.71203620347012    5.98972690064610
H         1.52295177590907    8.37706382413289    6.40644994640239
C         1.76279702078041    7.10321568862467    4.68461285123767
H         1.78623116268101    7.86833800388525    3.90788953980076
H         2.43823361115537    6.29496371989449    4.37961327027687
C         0.33977130397302    6.56343213012370    4.78506369476632
H         0.01643308334563    6.19282579911005    3.81503453229211
H         0.27243349533595    5.73763413226067    5.48970050717019
H        -0.35128765923090    7.34667651873544    5.09428154709192
C         0.13629660056411    6.86868336044447    8.58791017638505
H        -0.68010700059070    7.19650777736946    9.22788218945425
H        -0.17010276599628    7.02147807847211    7.55679498253861
H         0.28336411299652    5.80320269116442    8.74493517621134
C         1.40234947707158    7.65697094550869    8.91457848619830
H         1.51392073003434    7.72182773381687    9.99796972201823
H         1.29540643042349    8.68122438101629    8.54945276467528
C         2.69967543290249    7.03004014887674    8.36531746269145
H         3.50315386661417    7.76996970828746    8.45445646536215
C         3.09655996845064    5.80531134576595    9.20866107017247
H         2.20598035379905    5.24504340056009    9.49369701796448
H         3.71846054414518    5.13842968833383    8.58899742806580
C         3.89166616713871    6.19562903293631   10.44828095443277
H         4.13808003640929    5.31222962336914   11.03242051764547
H         4.81758589082833    6.68419787860566   10.15431766071035
H         3.32800106607702    6.87585284945980   11.08412554262814
C         6.43530977417591    7.18289257839621    6.72130765518445
C         7.31326905352602    8.18596454239406    7.46500119501492
H         7.27949916746961    7.99577670431184    8.53410954147183
H         8.33406951469721    8.12569887902310    7.09809762391636
H         6.93535372968711    9.18760120247514    7.26898629753853
O         2.99622066785439    4.18170614688966    5.16616598548159
O         1.84945749667795    3.91167905541390    7.02809642340114
N         5.89770855402358    4.20038305803563    5.61340633172867
H         6.63133795060469    4.91491144729453    5.65115349655161
C         5.23207736001630    0.96120730366239    7.52576166304975
H         4.30608558318996    0.40795463177507    7.66044074688003
H         5.90309455888058    0.36025509714269    6.91422782417279
H         5.68730173587305    1.09337028033099    8.50382776579619
C         4.94436678361273    2.29749244486699    6.85112405026176
H         4.44047409389012    2.09582241000939    5.90442105334147
H         4.26094593896217    2.89242116293423    7.47361020611798
C         6.20855449296239    3.12576369737732    6.57232620302176
H         6.97878953913731    2.46063673192850    6.15561299683647
C         6.73900387308383    3.73458434381416    7.87743012751705
H         6.71562643378915    2.96944420975229    8.65413511711322
H         6.06354896659185    4.54281006256497    8.18247032464382
C         8.16199029584321    4.27444053084383    7.77686811693607
H         8.48534773046852    4.64501601257087    8.74690090815499
H         8.22925187002594    5.10027477714167    7.07226137410017
H         8.85307207496250    3.49124276321266    7.46758132076096
C         8.36543307279604    3.96877864539499    3.97387418695464
H         9.18181757294643    3.64065820665539    3.33402581336972
H         8.67174991992979    3.81622896976475    5.00505053757161
H         8.21851700486714    5.03423449231116    3.81654713965836
C         7.09927524966016    3.18059427239650    3.64739607908916
H         6.98757257659100    3.11565067628282    2.56402333761703
H         7.20615015588251    2.15635972070628    4.01260120368873
C         5.80208734026520    3.80771911364868    4.19673448761335
H         4.99852049820918    3.06786832068467    4.10769325919292
C         5.40512742750265    5.03245470628142    3.35346129400424
H         6.29569011910922    5.59273654782222    3.06843321879887
H         4.78325744665105    5.69922474904128    3.97327169249382
C         4.61004525830329    4.64223444992072    2.11377734877358
H         4.36360611953677    5.52567469429694    1.52970956240852
H         3.68413752469823    4.15361473337449    2.40767237375785
H         5.17371415162888    3.96208574325295    1.47786345184851
C         2.06625359103209    3.65498919106478    5.84024638432379
C         1.18831833447898    2.65195498192292    5.09656933604944
H         1.22243566753008    2.84195791799093    4.02741981274731
H         0.16740706747316    2.71244401527557    5.46317428024596
H         1.56609743163434    1.65031627691365    5.29290644433730

