42
CSD_code = CEKFON | q = 0 | S = 0 | Stoichiometry = C19H16HgN4OS | MND = 3
Hg        0.28659912051989   -2.54788155834140    9.03960539650659
S        -0.56043483298348   -4.13222700853680   10.89422321020847
N         2.31204321811062   -3.90060615627897    8.13749523140052
N         2.07507356928209   -2.44232440287422   11.01259148156417
N         1.85670411221613   -3.36494794927607   11.96792980380068
O         1.70316592328487    0.10451504003925   10.10506641212239
C         3.28542219335080   -2.29075344728801   10.59328101171439
C         3.65875551117355   -1.25364077304208    9.66031855339056
N         0.56757101880092   -4.80495736883331   13.13557032184427
C         2.85762726272553   -0.11861354899078    9.42884691923576
C         0.74520814402405   -4.00532643730258   12.05658710715657
C         0.98352488832800   -1.54437981067455    7.20566138347136
C         2.11459115310146   -2.08392012189141    6.57238969313299
C         2.63534658562745   -3.41668778482317    6.93443308630102
C         4.84834825767652   -1.38535197729916    8.93805726674031
C         3.25608195832483    0.83019222775927    8.49413271466336
C         5.22402888386198   -0.44889357608198    7.99946342356221
C         4.42210421943240    0.66086378062605    7.77542274899717
C         0.51027418165101   -0.30445357465798    6.79631882059711
C         2.77559148118824   -5.07922966034600    8.51928160354568
C         2.75791384689606   -1.34176871511597    5.57991537846477
C         1.13480647840003    0.40105840093824    5.77881537371285
C         2.27245167203098   -0.11155114653456    5.18429984396948
C         3.42520418250395   -4.16719038104771    6.05863547168819
C         3.59087014451437   -5.86702061010361    7.72579831790151
C         3.90676864665785   -5.39887935945833    6.45965539032301
H         1.64455729844044   -0.53480246502900   10.83786996096992
H         4.07059164615189   -2.97012437816211   10.92965423020643
H         1.16803614907924   -4.66716036689273   13.93047793451838
H        -0.34157716750671   -5.21026847044982   13.27343167735186
H         5.46560117860987   -2.25490132072508    9.11427877567811
H         2.62392809495584    1.69028563403995    8.34092300579503
H         6.14020737380320   -0.57791684266258    7.44336947725114
H         4.71085295767140    1.39989609125596    7.04370621559296
H        -0.35962248621036    0.13066942805556    7.27016953105706
H         2.47923122482147   -5.40054346172218    9.50965791063445
H         3.66642511477760   -1.71356519549382    5.13091419228025
H         0.74022997783223    1.35734240845930    5.46768092436280
H         2.78564949575584    0.44707381684679    4.41528005505669
H         3.63974979106499   -3.80500022428365    5.06640190406298
H         3.95139454041864   -6.81898802078579    8.08124961195728
H         4.51670299052767   -5.98952071187749    5.79133863124569

