34
CSD_code = CEKJEJ | q = 0 | S = 0 | Stoichiometry = C13H13HgI2N3O2 | MND = 3
C         3.49267021142934    8.97876188656370    3.51026452393646
H         4.01617597207352    9.84063318482942    3.12160208756673
C         2.93442291307094    8.02871830821228    2.66489990538151
H         3.00586892570132    8.12231355579325    1.59031443047839
C         2.20601012962190    6.86106752015799    4.47136390735701
H         1.68914666829653    6.01059815548878    4.89644446848112
C         2.76927245410420    7.82086026994142    5.31355931112692
C         2.65153666631832    7.66547663793643    6.80522333857442
C         3.39753908998929    8.87940270391839    8.83255234441466
C         2.86050185286173    8.03456424144263    9.79184325852157
H         2.31420289203752    7.16190889909850    9.47532731362175
C         3.03036185260731    8.31790427664113   11.13679812004691
H         2.61021161554667    7.65678090282625   11.87819151012568
C         3.73442383991375    9.44127736004605   11.52486132319853
H         3.86889940486070    9.66509042060632   12.57207329331595
C         4.27758980585318   10.29585257805484   10.57592013143953
H         4.82363793692189   11.16699125176206   10.90129294919809
C         4.11685590313506   10.02732279411008    9.22676228783755
C         5.34442213224389   11.95772503915046    8.50801104232072
H         6.23333371572611   11.69466965403461    9.09680938947230
H         4.72717924773086   12.65388930826541    9.09143121690738
C         5.75382251548197   12.59422158006372    7.18922547298705
H         4.87074904454447   12.84217602185177    6.60639746658242
H         6.36628760477454   11.90318877815860    6.61626569198697
H         6.32153810599826   13.50043724454532    7.37814219174633
N         3.41240269824015    8.87636462913492    4.82380362141424
N         2.29024056178157    6.96578010104793    3.14929257723270
N         3.27424265802556    8.66622875767007    7.45992072912989
H         3.72062685932441    9.37275314921586    6.88207786258600
O         2.05411531378955    6.72719675309220    7.29301898934468
O         4.60332477152145   10.79131387693045    8.20403635669737
I         0.36532658377876    3.47230375416378    3.30782624744329
I         1.84976287630365    6.31543894352590   -0.70298685027209
Hg        1.26959717639207    5.19028746171889    1.57843348979798

