88
CSD_code = CEKKOS | q = 1 | S = 0 | Stoichiometry = C44H41P2Pd(1+) | MND = 5
Pd        0.61997307872874   11.96902384354072    6.52705860971679
P         0.78798747675848   13.13379247193543    8.52213799816733
P        -1.40089976864091   12.76476679993096    5.79523420973600
C         1.47846821476664   12.08851471224742    9.84374652944758
C         2.49380897969405   12.49441221212063   10.69966234471757
C         2.95206389269529   11.62819862364612   11.67829753958499
C         2.40185028199414   10.36413670759599   11.80937868811781
C         1.39112971977145    9.95370058589671   10.95331775312571
C         0.93568428460817   10.81035555027190    9.96981661685957
C         1.98179234368389   14.48529004704398    8.31587525088622
C         2.79184003048596   14.45416296539410    7.18301881185004
C         3.73561499935298   15.44313867175425    6.97373236227067
C         3.87302461438836   16.46838187801130    7.89614583998825
C         3.06551025512515   16.50634706328684    9.02250860981966
C         2.11896727599577   15.52038152635907    9.23637394276941
C        -0.62167546583169   13.93371845249205    9.35306973088980
C        -1.08694602735265   15.15265029327552    8.86467970664004
C        -2.17604566013213   15.76738848412603    9.45165503815016
C        -2.81261986542318   15.17235873691495   10.52905500652404
C        -2.35543460191745   13.95965310621815   11.01614800696091
C        -1.26753920301496   13.33723989745453   10.43073243387591
C        -1.53265295000394   14.53904887356479    5.45827418162189
C        -0.37563453730864   15.30442190709038    5.56364489815861
C        -0.41127565560121   16.66246513592556    5.30280013369206
C        -1.60601587733768   17.25854189279645    4.93254220012109
C        -2.75672788952178   16.49499726498776    4.80339258506067
C        -2.72420397557929   15.13553511178541    5.05465083034595
C        -2.27159963366714   12.03996106046385    4.36911004210678
C        -2.04769864966664   12.58361631839188    3.10511822789613
C        -2.65684286682206   12.02927425892541    1.99489302471916
C        -3.48230038710755   10.92446654129579    2.13486731246091
C        -3.69644947154434   10.37409049986036    3.38792336436869
C        -3.09117772119307   10.92404405198205    4.50410128204348
C        -2.48893440254585   12.34401627277653    7.19053674478376
C        -3.55089622412009   13.10675078636778    7.65320899101946
C        -4.30192290200258   12.65411621076094    8.72525052582099
C        -4.00155449367177   11.44705036958557    9.33282550013802
C        -2.93546551818262   10.68473628738587    8.87968554260746
C        -2.17768471266685   11.13472537741792    7.81587829370963
C         2.31717966203120   10.70610144588661    6.91722744246708
C         2.12247343470437   10.81880073565382    5.54485764259728
C         0.86350643943450   10.57868599845448    4.93711558374165
C         1.02932745387781   11.02293057339294    3.50307947272813
C         2.01060730557181   10.01895037087786    2.85704161428248
C         3.35397347519170   10.35005889360817    3.53575800087573
C         2.98367154450919   11.49199115434580    4.50715110429006
C         1.93233294876660   12.25023200495517    3.68494161152226
H         2.93132090831002   13.47698920384801   10.59860105404915
H         3.74354107015351   11.94326154037984   12.34120090237173
H         2.76347598458997    9.69519530313611   12.57496135344834
H         0.96587989540618    8.96595997380692   11.05249185431916
H         0.14972996808385   10.50081257731991    9.28564379719154
H         2.67133947740634   13.64073790564977    6.46275621749897
H         4.36195771690423   15.41902464864688    6.09449450623118
H         4.60854100277659   17.24151558264144    7.73563477996372
H         3.17409914704961   17.30810133270510    9.73703943370085
H         1.48066448150974   15.55392372917796   10.10838453989761
H        -0.58412360319252   15.62433828248041    8.03228525180173
H        -2.52455510041397   16.71528218736884    9.06974098247347
H        -3.65939653969376   15.65618347796222   10.99104028517368
H        -2.84438631332428   13.49641030816995   11.85963151819344
H        -0.91507021975438   12.39360491275181   10.82103278690188
H         0.55431291449089   14.81827886407098    5.85276225106685
H         0.48912565592653   17.25257602095161    5.38708269641683
H        -1.63923334155753   18.31821059919258    4.73130173875596
H        -3.68083335444487   16.96134333965713    4.49719820878574
H        -3.61166971425466   14.53307946507370    4.91975297388565
H        -1.40148460890788   13.44554605392415    2.99937585063746
H        -2.48659448934516   12.45822065046204    1.01894451845230
H        -3.95798548617165   10.49347334341638    1.26758071276770
H        -4.33928055656166    9.51387120368337    3.49771101501186
H        -3.26544759151790   10.49357521265957    5.48048968309872
H        -3.78261617636584   14.05484721922949    7.19224746410482
H        -5.12773894427188   13.24809121461891    9.08561566181842
H        -4.59517400651665   11.09934931409841   10.16406645155764
H        -2.70204844432046    9.74472019183724    9.35784613468937
H        -1.33602460760282   10.53946592105544    7.43532417624421
H         1.81511745741999    9.89532610282486    7.45302797064170
H         3.26559747875642   11.01091684596109    7.34992464619623
H         0.24460379340392    9.70960687241327    5.17459845449616
H         0.10735563732948   11.16420041878210    2.94188718723718
H         1.69993171303629    8.98925980460490    3.02881906712798
H         2.05736558535091   10.18232564774888    1.78161505184209
H         3.77824093217939    9.49704852313146    4.06419276882204
H         4.08884736948861   10.69989636636971    2.81256636644896
H         3.83864820655222   12.05512974958034    4.88110218081566
H         1.43675111311634   13.06051042046654    4.24764670433651
H         2.32552633745481   12.64106764038407    2.74875961820434

