61
CSD_code = CEKLAG | q = 1 | S = 0 | Stoichiometry = C22H36IrNP(1+) | MND = 8
H         7.04317678059287   11.82950769834807    9.77349790560367
H         6.95082843641378   12.85342451687563   11.44967708863132
Ir        7.78227542400896   11.63164545019020   11.09330417359297
P         9.37583848214596   13.11430080755754   10.23973077439932
N         6.21596912342859    8.37819596775897   10.54994853701691
H         5.23019335029557    8.45860560278377   10.74387384417334
C         7.03832609605652    9.20225754841781   11.22155632444169
C         6.53643332727085    9.99768929664793   12.28432304140573
H         5.48005429334322    9.94994522718682   12.51532505318041
C         7.40269244454546   10.65852137556875   13.16479023187384
H         6.99595025334590   11.13739263273696   14.04457500378614
C         8.78144066731100   10.64506913988872   12.94611003190180
H         9.45915895130167   11.06619843157599   13.67304838840319
C         9.27463569866305    9.98840306544023   11.80723220715336
H        10.34344690773654    9.93417559497477   11.64671320846148
C         8.42527626768900    9.30589402292078   10.93898210398805
H         8.84073293069725    8.74909189551250   10.11282858678355
C         6.59552543135575    7.58589315423192    9.39893482810935
H         7.45051149006787    6.95275603821489    9.66183984543024
H         5.75626052422078    6.92210807228224    9.17475923230245
C         6.91901142715696    8.41052402681997    8.17302496733608
C         6.14267092007643    9.51375056150841    7.84065049375199
H         5.31437173894555    9.80359252524772    8.47024724150646
C         6.41599026971616   10.24005428860899    6.69500617196841
H         5.80330078263743   11.09185694940571    6.44483685220949
C         7.46377388117500    9.86842736882506    5.86945451401604
H         7.66862723127911   10.42814130135906    4.97033779318514
C         8.24631373616461    8.77489123570988    6.19957079400256
H         9.06426526545380    8.47914094568583    5.56061330533494
C         7.97804320834758    8.05248850232395    7.34933394938697
H         8.58474660078838    7.19280438788127    7.59821014431965
C        10.68225753595125   13.45312836669711   11.53447877870236
H        11.09808738041640   12.45519645655781   11.72224244031168
C        10.08144830231679   13.96614619842875   12.84189365768853
H        10.75394034535282   13.74722821150145   13.66904297382883
H         9.11649777096368   13.50599388431686   13.04289622338025
H         9.93984528018975   15.04103629747942   12.81106382772565
C        11.81443650562539   14.36387544519624   11.07039149940728
H        11.46268018412796   15.38239774289683   10.93661981230623
H        12.26662631597469   14.01969908563200   10.14423873938672
H        12.59011592793983   14.38230562561698   11.83430720586174
C         8.62351953088435   14.70452894248086    9.58541601744728
H         7.73632582770085   14.33470485972452    9.05603995574365
C         8.14229368264754   15.60825993783906   10.71674648009112
H         8.97194877152990   16.13809474248533   11.17418704884683
H         7.61500829125861   15.03338753205841   11.47358235946439
H         7.45549222968156   16.35026222962190   10.31747860385316
C         9.49375603272094   15.50060487712044    8.61419222120672
H         8.95518363972546   16.40521124082474    8.33881724742732
H         9.70050209435833   14.95496086355332    7.69922101105694
H        10.43405908147381   15.80345047799045    9.06359499391691
C        10.32321260400662   12.46759779017717    8.77040527970113
H        10.96082704087762   13.29514138828009    8.44318780580928
C        11.20885017081235   11.26904304746644    9.08825047296486
H        10.60278969659559   10.40841088562535    9.35619466741487
H        11.91704146684240   11.47765601412577    9.88644949546867
H        11.78081619613468   11.00232184690533    8.20155349568651
C         9.34848255811046   12.10596638155860    7.65528627080227
H         9.89812750888954   11.81208538768503    6.76396891682455
H         8.69790685782607   12.93625314593981    7.39896460568131
H         8.72097922683326   11.27200346171958    7.95875125434274

