26
CSD_code = CEKMOU | q = 0 | S = 0 | Stoichiometry = C11H12MoO2 | MND = 10
Mo        2.57740359089482    2.43601013127714    1.67449863122966
C         0.90062274118603    3.77092049664867    2.48360060975974
C         1.82234409324690    4.60106166576495    1.81030713658228
C         3.13787576436251    4.55908405402438    2.31771015486390
C         1.43634923361991    5.44462555534578    0.62816455606514
C         4.30014337307678    1.01339582411696    2.33773992525368
C         3.94231859503536    1.74687435369403    3.48163647525408
C         2.59900608042613    1.45055351659497    3.79323738466020
C         2.12169771154968    0.51857988330886    2.84864343567736
C         3.17417297794496    0.24796792326135    1.93145489403049
C         1.31699335349956    2.26988356337629    0.22849657645637
C         3.39057875893321    3.02615241147055    0.03156805593481
O         0.60978995432085    2.17285761685975   -0.67355768890643
O         3.83835422722763    3.34562063069867   -0.97891430216943
H         0.95797882686782    3.73395373922395    3.56887421388185
H        -0.12150636749590    3.76486079759277    2.11834301951626
H         3.25509802548639    4.53112598180736    3.39936533595428
H         3.88146052192713    5.18057153432367    1.82907124743401
H         2.27879012453491    5.59803444963421   -0.04610972847801
H         0.61226133664162    4.99856258728627    0.07129640804226
H         1.11047112145260    6.42184681363311    0.99269154927860
H         5.29718495785868    0.93033272046551    1.92432087275544
H         4.62130869920709    2.32604488945546    4.09369626731594
H         2.08916073527641    1.74130072906185    4.70364965616333
H         1.18689009692296   -0.02257005527736    2.90894052462687
H         3.19175146599634   -0.56235181364907    1.21047478881753

