110
CSD_code = CEKSUH | q = 1 | S = 0 | Stoichiometry = C38H64N6ORh(1+) | MND = 4
Rh        0.88933419577139   -3.11482598016344    2.98961817969331
O         2.59370924245369   -1.82261676729739    0.91726644870319
N         3.09065639623167   -5.24543400957451    2.52829165758514
N         3.18488568911499   -4.43595669232349    4.53048786146414
N        -0.50171940311927   -5.33610504286078    4.68053165070339
N        -0.87625205140673   -3.40277215911384    5.53453494718586
N        -1.88095759863341   -2.18737465436576    2.06610370122818
N        -0.66432190622068   -0.46459295813491    2.53850460941327
C         1.91710938273182   -2.31955143962860    1.70442676446860
C         2.49697479980797   -4.36598730745325    3.37068583158549
C         4.13675686592612   -5.88039745622350    3.16831291368078
C         4.19595134354189   -5.37135505658550    4.43208765812904
C         2.74159576148056   -5.31355847068933    1.11393372314690
H         1.82816243527008   -4.69840847733676    1.03183621413239
C         2.40630807066051   -6.71538597825538    0.61581467561752
H         3.28147763109301   -7.35558847312631    0.57866441226426
H         2.00537853083219   -6.63883325538444   -0.39165956777776
H         1.65402747289894   -7.18058305067570    1.24529570186007
C         3.83337951886972   -4.67930993342337    0.24972021435209
H         4.18000963679522   -3.74707603381082    0.68668837970429
H         3.43371451049505   -4.46656709433063   -0.73785699469606
H         4.68658462257151   -5.34073286208266    0.12972521405864
C         4.98807117852046   -6.94878423316635    2.58078904824485
H         5.86736652397457   -7.09699107945264    3.20129423895583
H         5.32460490440817   -6.69207158735440    1.58071291721713
H         4.45099209215359   -7.89629913068479    2.53653151323312
C         5.12004611936851   -5.76500745063445    5.52932924226825
H         4.62989669597184   -6.44749537061416    6.22460783456282
H         5.48042128520371   -4.90406829124879    6.08422352321316
H         5.98263696670613   -6.27891572711160    5.11418894779269
C         2.90976425375239   -3.51636834375707    5.62220262859076
H         1.99481341676697   -2.98738000859252    5.29788144182688
C         2.62477043223957   -4.23362253038307    6.93845260185713
H         1.85558589778572   -4.99074799646634    6.80065498066944
H         2.26884964388176   -3.51618829700344    7.67319381974946
H         3.51352700603704   -4.70627182924920    7.34267600591665
C         4.01361887828732   -2.46681740494496    5.75206930291322
H         4.94397995003407   -2.89245085892666    6.11596184674420
H         3.70071402580628   -1.69489060798594    6.44998716277414
H         4.19733604083212   -2.00406903817271    4.78482932922735
C        -0.24537948800902   -4.01584560608646    4.50176925618932
C        -1.26994075765762   -5.53450235132235    5.79586662780625
H        -1.59082394327563   -6.49871344077483    6.12820584873037
C        -1.50777684831082   -4.31959694397253    6.33064258946747
H        -2.06853029169636   -4.05806533672754    7.20257433294753
C        -0.03524178560168   -6.44473697182075    3.87028868618549
H         0.52113086456642   -6.01067818329384    3.03021790589038
C        -1.21835526089654   -7.25636831967604    3.33216336221065
H        -1.83407997170725   -6.61983225603873    2.69463845995933
H        -1.83719213039581   -7.59848969017127    4.16343260346045
C        -0.74160453272357   -8.47319821317013    2.54464471648603
H        -1.60762814054166   -9.04666491414313    2.21112467188933
H        -0.20223325632006   -8.14739861316158    1.65315441381133
C         0.16136224060265   -9.35327317183858    3.40294217959958
H         0.50964995856672  -10.20602645309861    2.81909285828031
H        -0.40946816636780   -9.74102744637934    4.24929470910650
C         1.35537063785236   -8.55700266596239    3.91927537347915
H         1.97441829332883   -8.23788728696585    3.08040473091171
H         1.97128145613889   -9.18665635269558    4.56334944510547
C         0.89226102607775   -7.33562976841582    4.70594668854563
H         0.36017522026108   -7.67263262050993    5.59802654916854
H         1.75657029929701   -6.75309892663103    5.03080036677451
C        -0.95231946285137   -1.97973937990262    5.80337126800493
H        -0.33497480703435   -1.48056494703754    5.04583405022240
C        -2.40835489583190   -1.51357918756424    5.68095374787055
H        -2.76191269962776   -1.69708372208776    4.66434674831082
H        -3.03123760670303   -2.09592660058742    6.36313416880409
C        -2.55497220855059   -0.03480692185529    6.02237189429926
H        -2.02216983194680    0.56452375432232    5.28364162568601
H        -3.60917300693857    0.24252035635018    5.97344989358794
C        -2.00534257339930    0.25720695719677    7.41488209510230
H        -2.59806976770799   -0.27962138250217    8.15852196560328
H        -2.08979929956012    1.32303820399149    7.62996740282231
C        -0.54716936734317   -0.17783379804265    7.52100259672792
H        -0.17899967281844    0.00750045300815    8.53103535480644
H         0.06625940566342    0.41052549767756    6.83594084523735
C        -0.40100291175829   -1.66160416780800    7.19702640885542
H         0.65027699091587   -1.95030857998344    7.24532402560947
H        -0.94322132669568   -2.23887892615938    7.94785803210352
C        -0.65822108054990   -1.81924735527148    2.50647449009171
C        -2.66494503778052   -1.07350383772627    1.83988655707868
C        -1.89610987969916    0.01292300824000    2.13675249208732
C        -2.18597303574379   -3.57771139165886    1.77133848577524
H        -1.30711151638700   -4.12866966353165    2.15342621077466
C        -3.43281701187664   -4.07327882943131    2.49802694256131
H        -3.36144936206330   -3.86283086439551    3.56319447207281
H        -3.52568407838722   -5.14835940772530    2.36840477136100
H        -4.33664851080804   -3.61577224800871    2.11039133294245
C        -2.24783774679071   -3.82170273078014    0.26345142398232
H        -3.11482200298023   -3.35341818364963   -0.19302337077811
H        -2.30087836169322   -4.88982343608373    0.06999999308080
H        -1.35046404494472   -3.42888957950234   -0.20997181395047
C        -4.08794543957602   -1.08908819495552    1.40626575395385
H        -4.36045720921933   -0.11412774558833    1.01151138592989
H        -4.74860337105737   -1.30329592352543    2.24722265285214
H        -4.26675147738727   -1.82481808305650    0.62806931905550
C        -2.29464045904191    1.44487678998931    2.09341309669294
H        -3.22414967085077    1.54799224668036    1.54074268433570
H        -1.54418614711467    2.05755602101071    1.60224556081190
H        -2.46178493751330    1.83471983965695    3.09740691844305
C         0.54952608010331    0.30710343708499    2.77821974280616
H         1.27951910074540   -0.44064865183966    3.13294745722900
C         0.41647157537549    1.37579429626180    3.85799393828798
H        -0.19517856688952    2.21100871166017    3.53356618608034
H         1.40695649913643    1.75845189105865    4.09066056645086
H        -0.00729235268149    0.95856728962279    4.76625453352292
C         1.07071491403391    0.91548378147662    1.47473506220805
H         1.03921104010835    0.18687764422329    0.66933066598056
H         2.10099615344453    1.23242556236604    1.61000387108433
H         0.48931309816384    1.78301646981175    1.17583953530706

