103
CSD_code = CEKVUK | q = 1 | S = 0 | Stoichiometry = C50H50P2Rh(1+) | MND = 6
Rh       12.10322877629777    0.26425231299667    8.66129967683838
P        10.65360334712519    1.46340748277119    7.37826574146963
P        13.65476422398128    0.47040462303632    7.01285411712675
C         9.13092637478844    0.73301137484896    6.66350189856954
H         9.33391510888077    0.04851518321146    5.83850362215370
H         8.51104804952452    0.23061313697966    7.40927897856973
C         8.51518946578524    2.06207643150335    6.18896752897180
C         8.50024681562055    2.92650773992575    7.45502986632875
C         9.61183607583649    2.74736112435231    8.18745881832675
C         9.62913990344871    2.65688094097636    5.33095356031591
C        10.87141280335242    2.44608665972384    5.83886939253189
C        12.00943695996098    3.21735480672398    5.40421634297625
H        11.71235622012204    4.14636173112834    4.92758759874692
C        13.33216864934553    2.99760760893455    5.46062818049563
H        13.96364803688172    3.77382683843551    5.04195924604438
C        14.06738539830937    1.81550451636975    5.82358214002628
C        15.20883958363850    1.45785593105371    5.18820653132082
C        15.45570340425212    0.08915054799456    7.13361520469219
H        16.02246914851515    0.86372694305386    7.65507277444206
H        15.67421087787456   -0.88098098995562    7.58269319571116
C        15.72270125115814    0.08952882347173    5.61986697462470
C        14.68154442785536   -0.88883867115893    5.05639267332109
C        13.50408333302935   -0.79596151462179    5.69041971161111
C         7.39628828945165    3.88546392559362    7.72261037372308
H         6.60343489139176    3.39614878928378    8.29039244239265
H         6.95573575345414    4.24581288172009    6.79728730763733
H         7.75712637680328    4.73428589372704    8.29985317877244
C         7.18406687504775    1.86515286786042    5.48718520583460
H         6.45156931882005    1.45713812800728    6.18020283769658
H         7.30800578205774    1.16479576966923    4.66359052452385
H         6.79682627079896    2.79268441388356    5.07688011911432
C        15.01537772548008   -1.76971667374576    3.90898393293669
H        14.18975368685039   -2.43970373314575    3.68395237933650
H        15.90041459034776   -2.36509387327984    4.12674176361601
H        15.23564403853749   -1.16547534675370    3.02829162457019
C        17.16155048346960   -0.22614086237418    5.25897361578219
H        17.33155116618518   -0.11707716755179    4.19107795454585
H        17.40719266787018   -1.24428442133428    5.55358321933283
H        17.83664099195903    0.44449367992202    5.78437814527563
C        10.14457927206115    3.46634789140857    9.33595132684462
C        11.53098498896341    3.62426835833728    9.41074527587741
H        12.15519882323816    3.21887648487549    8.61456801547922
C        12.10704623022709    4.32006380147491   10.45533216567078
H        13.17855254200253    4.44790579551602   10.49256717846160
C        11.30800085501010    4.85153943884375   11.45686397869615
H        11.75523318746189    5.39354770580381   12.27575616747185
C         9.93526579750157    4.67415532473420   11.40861205881961
H         9.31269002191214    5.07243853925264   12.19531688680925
C         9.35271727482363    3.98594925445901   10.35891960042146
H         8.28553686311938    3.82940477705625   10.34838112770664
C         9.38135731562487    3.38628096007331    4.09283232416505
C         8.51606095563576    4.47723515793380    4.03192680321972
H         8.03220280805054    4.82877075445433    4.93040823237494
C         8.31834041288001    5.14737233150867    2.83931480910935
H         7.65162802534795    5.99589848455770    2.80736090100209
C         8.97401209266505    4.73748381976900    1.69013070605026
H         8.81096454885407    5.25845373043438    0.75939136702217
C         9.84597190921668    3.66230133008981    1.74233147643611
H        10.36574840103724    3.34421860131307    0.85114153080215
C        10.05411893386645    2.99544478158627    2.93414927741285
H        10.72726244421472    2.15119656100211    2.97926348563219
C        15.79221722110256    2.18044664354086    4.05522205142891
C        15.04555147975030    2.32313713564695    2.88649509884275
H        14.05168397278856    1.90063303238768    2.84213753135550
C        15.57422150926048    2.98476560624025    1.79443366783562
H        14.98906113045184    3.08302525282435    0.89248241788905
C        16.84869676720731    3.52362728612142    1.85813700294142
H        17.26034483971328    4.04180201334405    1.00588796469000
C        17.59001106442828    3.40133266068539    3.02127370558652
H        18.57889724356537    3.83009563991183    3.07965064136258
C        17.06902208475177    2.73178013037265    4.11353537727594
H        17.64443875952100    2.66055388336013    5.02382768018201
C        12.21568928754174   -1.41706355193647    5.40335273197296
C        11.69731452454420   -1.44005309003193    4.10966001131908
H        12.26030918613836   -0.99671186491572    3.30209705308559
C        10.45903467413654   -2.00531035692043    3.86396097413147
H        10.06514490530519   -2.01453063566174    2.85873169155116
C         9.72444814459792   -2.55974516232431    4.89967130083411
H         8.76308973373274   -3.00856910946368    4.70183226263043
C        10.22666297803483   -2.53118476092832    6.19130485461447
H         9.65676341973141   -2.96433554027741    7.00017570496789
C        11.45682310741278   -1.95238119397370    6.44306441651726
H        11.86631410541092   -1.95082987188425    7.45182942044558
C        10.67841507929267    0.42623020047304   10.34263340000360
H         9.88553234193524    1.11598279817359   10.06425826361262
C        10.60881676230708   -0.85994838081219    9.85156298896041
H         9.80884688296710   -1.08803904441504    9.14638430538240
C        11.17915247095850   -2.05559922682235   10.57922776529423
H        11.11856075056820   -1.86347071149617   11.65151185054337
H        10.55380825032947   -2.92478681740519   10.37074009191440
C        12.62936416950108   -2.38385710400329   10.17873207554877
H        13.16260612175842   -2.81425167699332   11.03257820196424
H        12.62588084046177   -3.14390605273877    9.39450492186103
C        13.40165202506528   -1.18710293669029    9.68266913459041
H        14.20465608134686   -1.45782081300685    9.00031242583508
C        13.48746830763119    0.02234990502708   10.34560691770257
H        14.32131872126020    0.68313753265775   10.10059478935245
C        12.84458108798737    0.26703567891434   11.69025151782598
H        12.83711272299252   -0.67208748697365   12.24589269227909
H        13.45922018533551    0.97160058589290   12.25171787988124
C        11.41775284408299    0.84024647860760   11.58804437246163
H        11.46734362337007    1.93022817220663   11.60311391224192
H        10.83225974397326    0.53358301578013   12.46092583510605

