45
CSD_code = CEKWAT | q = 0 | S = 0 | Stoichiometry = C14H16N6O8Zn | MND = 6
Zn        0.00005763340864   -0.00015569586920    0.00006377581585
N         1.84250032370805   -0.26399459934335    0.89517527443434
N         1.52971658065666   -1.97025477382972   -1.45480531696825
N        -1.17722028220432   -1.03414200530231    2.60527733209209
O         0.39316299319415   -1.76071868417664   -0.94357779174694
O        -1.73676892942430   -1.92110720777318    3.20084614301031
O        -1.04425809184112   -1.11828017851791    1.35209680799748
O        -0.75947678632192   -0.02771647072212    3.16870785918313
C         2.09104551159862    0.42665373568353    1.99732426368321
H         1.22434680595695    0.71966031901144    2.57100942429110
C         3.37103541622259    0.74373668090979    2.42379797925124
H         3.51476472162128    1.30486178510693    3.33281002547979
C         4.44804547188515    0.33446438583431    1.65293845178877
H         5.46076480622591    0.57904071392172    1.93679237351996
C         4.19783022816437   -0.40393775352862    0.51425478150886
H         5.00851631130792   -0.75057428648217   -0.10776302856905
C         2.87469520031966   -0.70149930330002    0.15925589662575
C         2.66180822055283   -1.52168665875449   -1.00866481017536
H         3.54352760815179   -1.78671250393192   -1.57270143168538
C         1.50604484138391   -2.77572422410969   -2.66373834132493
H         2.46805535131854   -3.24059384540929   -2.85862765152851
H         1.23215789935646   -2.11310461854813   -3.48888994546706
H         0.72781049759113   -3.52867626018729   -2.55168835383506
N        -1.84239653953626    0.26377004245634   -0.89507396391201
N        -1.52949190357326    1.97024656632150    1.45474997792377
N         1.17652284795568    1.03428452514190   -2.60534170592936
O        -0.39292802527232    1.76046721460411    0.94364865898409
O         1.73511758218197    1.92178123398385   -3.20101306007222
O         1.04420345144289    1.11801965228038   -1.35206815199259
O         0.75926314092281    0.02764742162380   -3.16876046772770
C        -2.09099259469964   -0.42702054568886   -1.99712317413308
H        -1.22431502715575   -0.72025613081730   -2.57072173065682
C        -3.37100914099607   -0.74397457622195   -2.42361226891242
H        -3.51477516323523   -1.30522173800069   -3.33254237808017
C        -4.44799679901523   -0.33440528851001   -1.65287897263313
H        -5.46073821086223   -0.57886568354439   -1.93674761195656
C        -4.19772573801048    0.40412091807806   -0.51428770650143
H        -5.00839240205302    0.75098924881630    0.10762596450533
C        -2.87456538038805    0.70152836482007   -0.15926608554908
C        -2.66162477204546    1.52183565817090    1.00855799726230
H        -3.54334309391430    1.78707425170365    1.57249818059457
C        -1.50577893027316    2.77579658267382    2.66362965375672
H        -2.46774404672329    3.24078591272900    2.85845190481944
H        -1.23199183802951    2.11320330578937    3.48883489578211
H        -0.72745974955422    3.52865451290679    2.55154632704782

