44
CSD_code = CELCUT | q = 0 | S = 0 | Stoichiometry = C17H18N4NiS4 | MND = 6
Ni        3.47240158504805    3.55218310987363   15.05832117642298
S         4.74932231870822    1.64035576253676   13.70067689792926
S         5.14204690740174    5.13567351066091   14.95561608688721
S         2.17999784945875    5.66061074910620   18.61934549118213
S         0.65119146029301    0.75824607821326   16.93087056489170
N         2.89397763777098    3.89513881168132   12.85684167643939
N         4.78390944101539    2.92492697021258   16.84934677397994
N         2.40004166689231    4.77241260492065   16.01632445394355
N         2.21523558750150    2.27545563629694   15.25074830679054
C         2.39668643305153    5.07503545934607   12.50613462659907
H         2.33074167508350    5.81198543420944   13.29667277807597
C         1.98534235542715    5.35596629759770   11.21387325880016
H         1.58445737370740    6.32594739248313   10.96778896085029
C         2.10508928021071    4.36572933185584   10.25125222514026
H         1.80366945190792    4.54756565524958    9.23029093740070
C         2.61480109511506    3.13300313574444   10.62080837500386
H         2.71173700174942    2.33466680153879    9.90072151397221
C         2.98910443673697    2.93217040155824   11.94517200013927
C         3.47401625462915    1.59016894286243   12.40346564159909
H         3.84789516728247    0.98827509129713   11.57450172338693
H         2.64606500707496    1.06690329417559   12.88974313348431
C         6.18588533354249    2.28981632239088   12.76042097016526
H         7.04694137796742    1.74594112848809   13.15047780769618
H         6.03936336804721    2.01383181129301   11.71731864366104
C         6.40913284546038    3.78852207153290   12.90169580019978
H         5.55922934115311    4.33167325047705   12.48057943393467
H         7.29091837445267    4.05726979447794   12.31462622509942
C         6.60761747308204    4.20942455102393   14.35847950437973
H         7.45968768796976    4.88180126717522   14.46550456070971
H         6.74528262446229    3.34184728444331   15.00413272173252
C         5.53400627913236    5.24094214596296   16.72509933665925
H         6.57817930385507    5.54913109626139   16.81540908159758
H         4.89928949174801    6.04275941613301   17.11011434754509
C         5.26813022021317    3.98014567459793   17.50227697871981
C         5.51373455254039    3.96110326633052   18.87021846561056
H         5.89730349652716    4.84176030839922   19.36181111169023
C         5.23043256153781    2.80946501219529   19.58153366460823
H         5.38789564677709    2.77446483392612   20.64896890444609
C         4.73834159159229    1.70739688534501   18.89836004162924
H         4.50439900307815    0.78978649618378   19.41320150091789
C         4.53939177512136    1.80944907448337   17.53422773747329
H         4.16512836798438    0.97564129234653   16.95543056305753
C         2.30960180497321    5.08212434747294   17.15200215634117
C         1.55167749276392    1.70098219768749   16.04259383922548

