73
CSD_code = CELGOS | q = 0 | S = 0 | Stoichiometry = C28H42O2Zr | MND = 12
Zr        4.05160506501842    8.45556976044732    6.08174892644071
O         4.77101865004812    9.70795783344092    3.13250861250467
O         3.11596107881581    7.26303227927297    3.16894164096526
C         6.56618887159232    8.54151471272332    5.86657062996670
H         7.11836347010353    9.05271540513968    5.08978700297245
C         6.18390827989657    9.11732543250152    7.10761271451765
C         5.66798192757196    6.87927464713077    7.13520588392388
H         5.48282549699580    5.89010470277644    7.53745364783659
C         5.63470392481479    8.07711491417006    7.89502083104874
H         5.40148652078722    8.12932673835108    8.95144454470046
C         6.26339492496809    7.16050920781788    5.88064537497415
C         1.52857754232071    8.37240002223472    6.04876570198690
H         0.92116514736432    7.87750540868572    5.30329029516225
C         2.60498675739719    8.79402394957273    8.01381149231169
H         2.91422059242253    8.71938513729568    9.04916161870466
C         2.51763293454824   10.00783556322084    7.28426562924842
H         2.73213160179999   10.98831721645750    7.69318118643976
C         1.99938693602010    7.77046216957926    7.24623756980145
C         6.48906805287124   10.54262746312962    7.52427812256249
C         1.29646033291230   10.79882170640737    5.11305781655894
C         6.72813551715921    6.13597088250004    4.86480257977534
C         1.83262867669920    9.75308259263810    6.07043980769780
C         4.38622227191912    9.48385922558496    4.23158102932149
C         5.87914273244150   11.51604201703538    6.50277546406363
H         6.30912397058536   11.35840192000515    5.51410593015262
H         6.07797496010459   12.54600904974571    6.79692230216799
H         4.79581060525034   11.36672605449364    6.43995719163211
C         8.09516569192105    5.60401731304418    5.32952501012867
H         8.80862623500660    6.42036554191107    5.41300622240115
H         8.48164672131783    4.87537791732812    4.62024951728878
H         8.00720767740522    5.12855446296928    6.30365956101942
C        -0.03033280649161   11.32362483924759    5.68917914036734
H        -0.73763793232677   10.50676455232692    5.81117867765575
H        -0.46719470336377   12.06575487900279    5.02453110294344
H         0.13196119073332   11.78091749815777    6.66246947700461
C         3.58221491432364    7.46441617729457    4.24053988568833
C         6.88398318416064    6.76526016355501    3.47605397632662
H         5.95337068744675    7.23291126838229    3.15747546532497
H         7.15049975486968    6.00107065517185    2.74871409361544
H         7.66871269803311    7.51737228718926    3.47286410921241
C         8.01277344472126   10.73616154075946    7.56789924588704
H         8.46266285197103   10.03229364376432    8.26452670695639
H         8.25955203123807   11.74655557620631    7.88761024964998
H         8.44927205703082   10.56876606926722    6.58690685389403
C         5.91362188441100   10.84935541183899    8.91158165415608
H         4.83696967446055   10.68461141447915    8.93393465892048
H         6.10619566069276   11.88833987988878    9.17260553176786
H         6.38071755816837   10.22271878456791    9.66825146388291
C         1.72434650597994    6.33620807084831    7.65314487844485
C         1.03538369614018   10.19777985859092    3.72759630547146
H         1.93784230052740    9.73402895686597    3.33166705873153
H         0.71885658196120   10.97700791039581    3.03721310865769
H         0.24939740667428    9.44803941654108    3.76796332817691
C         5.74434418480507    4.96371789130791    4.76353157385974
H         5.64871508127092    4.44522192755657    5.71484717617877
H         6.10047009089410    4.24515507964164    4.02794100352485
H         4.76234760308396    5.32088404645421    4.44886990565183
C         2.27353229145448   11.97140886034630    4.96214316313217
H         2.44216138768799   12.46986796702083    5.91403708207133
H         1.86520463483765   12.70565709015390    4.27048389875809
H         3.22796120210289   11.61946219460214    4.56708266623852
C         2.39856053055611    6.00018008774295    8.98818365152619
H         3.47424532320990    6.16439976913848    8.93571144423637
H         2.22383043867923    4.95590706682980    9.24052456721659
H         1.98864465486859    6.61065265404015    9.78985683359464
C         2.25809338916256    5.38544228991964    6.56954334654001
H         1.75694690337952    5.56309762754757    5.61849870313576
H         2.08143778872472    4.34919320413929    6.85567854537376
H         3.33391923649217    5.53785471900680    6.43089376294093
C         0.20769432327194    6.14025929871172    7.80273764018586
H        -0.18996095931582    6.82727479840921    8.54637549560015
H        -0.01596551555950    5.12245067754376    8.11587499339396
H        -0.29870439905882    6.33002264793284    6.86016371587566

