66
CSD_code = CELHAD | q = 0 | S = 0 | Stoichiometry = C28H30N3NiO2PS | MND = 4
Ni       10.00062095582737    1.51321165013764   10.79927658712238
P        10.74930323834856    2.31309356595615   12.68494813586966
S        12.74440791913402   -1.42487894671921    9.11469076964418
O         8.45760464636236    2.50669270481941   10.86702445431049
O        12.85827064319815    2.27154270398109   11.04643338624901
N         9.38090531357584    0.44996497704805    9.39296800207340
N        10.28687069952387   -0.47004128007204    8.93975449905177
N        11.53562860289958    0.50527562480645   10.58720113223177
C        11.41321425945926   -0.36488244688338    9.58131053942712
C        11.94665203460511   -2.32666726490376    7.75944251391220
H        11.63088216774314   -1.61643495935623    7.00316499666040
H        11.09075841772390   -2.86525837019818    8.15119076546793
H        12.68971250306848   -3.01182399436607    7.36429841343306
C         7.94013956130458   -0.47567762976680    7.68684939925633
H         8.10049863314835   -1.49068185104082    8.04613800745582
H         8.64932978967289   -0.30369177237869    6.87872016963936
H         6.92681131571978   -0.37281781283074    7.31143704924393
C         8.20654837567240    0.49593820544366    8.79938751442544
C         7.21391719275039    1.41779278310318    9.17724312234055
H         6.27213897074229    1.38481848825241    8.65424027803935
C         7.39011307455411    2.35820150481841   10.17259681355242
C         6.27110671307261    3.32301675512452   10.49553625811004
H         6.41944998902882    4.24912760352805    9.94069366862391
H         6.29107748225771    3.55706145911959   11.55782933357357
H         5.30534933131971    2.90607358378045   10.22682616268801
C        14.12878725502016    4.26371126891622   10.72101494128654
H        13.42526795515208    4.85202431709939   11.30191164304549
H        13.82134933826620    4.28759663106520    9.67927002713501
H        15.12082638392683    4.69751818207441   10.81286413883995
C        14.14579156607471    2.82663341203107   11.21578745557390
H        14.87217790124757    2.23769631029443   10.63617976650058
H        14.44118014916284    2.78534005457318   12.27563187141678
C        12.78746920846591    0.85386167323327   11.17686741724624
H        13.62518989362092    0.37554504164704   10.63715283693513
C        11.92374662479791    1.15931181837364   13.47705180584538
C        12.82103428688541    0.48978986062065   12.64416968758550
C        13.68898313240774   -0.45406588515081   13.16470375461954
H        14.37033565171236   -0.97423856399974   12.50679870621193
C        13.67033475832890   -0.73097740557779   14.52224143024602
H        14.34584994342796   -1.46830559419817   14.92973846458576
C        12.78701133890729   -0.06445826693640   15.35556063619802
H        12.77665778842197   -0.27957056206687   16.41412509212862
C        11.90878170866204    0.87189646974627   14.83619995192575
H        11.20780366740851    1.37819225146198   15.48527380953026
C        11.39143357904163    3.96838988444482   13.06642630422201
C        12.41705488899321    4.20986685339266   13.97108232827610
H        12.88867432844426    3.38652379557580   14.48883151843647
C        12.83206331930710    5.50987924457325   14.20635315383380
H        13.63150148663012    5.69932165256449   14.90823698606769
C        12.22666928501059    6.56673334728278   13.54615311498395
H        12.55550591394873    7.57834975006636   13.73398947205802
C        11.20274674400575    6.32696978136923   12.64206905438511
H        10.73431634166497    7.15227009429703   12.12585807099996
C        10.78890994916410    5.03046065294279   12.39901508735474
H        10.00084208206151    4.81649552954444   11.68911472665002
C         9.35170663497894    2.18817842606030   13.85683690473612
C         9.04518280865563    3.12203885770664   14.83738906722631
H         9.66035754062638    4.00275077911614   14.95897632595018
C         7.94526671697596    2.92700271363937   15.65652735897603
H         7.70782641073044    3.65679843478966   16.41737121616247
C         7.14854819818127    1.80549330620093   15.50134836011020
H         6.28958592038213    1.66131023565472   16.14034558738592
C         7.44733327540771    0.87192409448845   14.52006013063575
H         6.82053278918880    0.00136838021916   14.39292051720535
C         8.54211175621692    1.06571960107069   13.70131908390744
H         8.78193964775314    0.35669829038927   12.91073022117433

