55
CSD_code = CELJEK | q = 0 | S = 0 | Stoichiometry = C20H27Cl2N5Zn | MND = 4
Zn        8.27612240320209   14.68869858888140    1.23582737903140
Cl        8.96982778373200   14.90986712049513   -0.83762403936011
Cl        9.06885857139532   15.61154538455578    3.09973144352554
N         6.20082889399688   15.02979633358785    1.42027539026088
N         5.53344074370021   14.60341613761176    2.50764517070497
N         5.81630994758521   12.32961571571538    3.12835128586241
N         7.72436747436449   11.60551249739266    1.76337070413573
N         8.59195970621168   12.62623901680074    1.62717407545502
C         5.77580503767494   16.48934217830019   -0.52458209980341
H         6.16566032341608   17.48071597833158   -0.29407018932424
H         4.91864528215486   16.60251614091927   -1.18360319814263
H         6.56039894394982   15.93247065828768   -1.03054052878165
C         5.37498732575095   15.80653102581603    0.72818336883582
C         4.13902302354125   15.86296339092702    1.38541003646777
H         3.27148701791455   16.40785933146164    1.07494411417175
C         4.27282773736606   15.08352864614089    2.51578332400174
C         3.30013209913902   14.77499889195892    3.59055816867882
H         3.16521310968240   13.69922784243010    3.69062969620757
H         2.34406469379340   15.23576460037759    3.36055893611556
H         3.64962750157338   15.15909222919205    4.54864728624042
C         6.14174502424047   13.70970403923388    3.45010708878796
H         5.73124242314440   13.92079655715504    4.44049193525926
H         7.21885509836095   13.92247266612934    3.45357985725732
C         6.29644944854444   11.85041433197920    1.86583727410974
H         6.04026229578757   12.58758243318971    1.09789995506403
H         5.78630142435846   10.91082660224905    1.63675191603477
C        11.02784709367312   12.94244429480296    1.44927189579301
H        11.04318194874216   13.41143395052734    0.46555956401680
H        11.92002562219158   12.33366604072265    1.56747802263388
H        11.02667835565362   13.73539437785958    2.19589292500837
C         9.81321042144582   12.10769725699775    1.58960042852595
C         9.72558867938440   10.71379948628982    1.69762133221383
H        10.53699584249561   10.01562172278038    1.69026836030252
C         8.38179206415868   10.42328391281321    1.80121197166131
C         7.71459038376944    9.09981231104789    1.90455294487006
H         7.19910761429993    8.98402168380871    2.85727856352882
H         8.46518520482879    8.31843059631134    1.82525444494020
H         6.99086825967007    8.96550435638943    1.10107531705105
C         7.23574490932737   11.39278623407371    4.98802873760421
H         8.01786623447598   11.03029792659233    4.32617239223210
H         7.18034703111241   10.72845666283522    5.84720769468187
H         7.52241426770530   12.38360644859655    5.32760462206203
C         5.88380776178441   11.41205664776188    4.26842279254061
H         5.69889483576596   10.41310620172755    3.85498611982336
C         4.71261869342133   11.72934735113122    5.17847406935781
C         4.84271961364183   12.40257920473488    6.38570180595115
H         5.81514431167551   12.70238381235616    6.74369352851605
C         3.72651013817302   12.69139333427720    7.15413742230274
H         3.84597427781298   13.21419082683906    8.09145297484995
C         2.46606598709335   12.31347670854169    6.72797445400411
H         1.59861353618433   12.53805255589309    7.32992498160240
C         2.32464590454571   11.64134919725892    5.52535944597133
H         1.34524838469282   11.33938107692419    5.18495725500292
C         3.43948274362122   11.35545374398672    4.75865411589695
H         3.32658654405927   10.83387373699027    3.81874346626461

