74
CSD_code = CELJEI | q = 0 | S = 0 | Stoichiometry = C22H45AgN2O2S2 | MND = 5
Ag        4.19238236273700    2.89185674929674    1.27252194630401
S         4.77894575089862    3.38018334954777   -1.38797672208312
S         3.53383149345037    0.64393274826299    2.74431348071243
N         1.82997792430369    2.78550588394060    0.49046453914903
N         6.51924845133976    2.00712883562223    1.38485915866165
C         3.51997830301480    4.68037291496363   -1.12175827293208
C         2.11234831092035    4.25688065485146   -1.54286316199540
C         1.70595716841386    2.89180555132875   -0.95901269822470
C         1.14429132918346    5.34694089125840   -1.06683779722076
C         2.05011503302013    4.14437299651582   -3.06940253184313
C         1.11868123306655    1.61401929152056    0.98953638348974
C         0.89774279387024    1.59361811921024    2.51277098983381
C         2.19880299473293    1.76563209656885    3.29755255977365
C        -0.04176401256442    2.73235193089676    2.92813800036623
C         0.26248927336052    0.24609276513008    2.86987667800020
C         4.87075330001171    1.30859145004288    3.80186061453072
C         6.23564595955788    0.68104997726502    3.51704291540216
C         6.59143363574691    0.69564579953097    2.01955881964255
C         6.22980557388951   -0.78046841337088    3.97626829155729
C         7.27965662102492    1.46801817176989    4.31863774768824
C         7.17869914159506    1.98983332063705    0.08384240961685
C         7.45256359911812    3.37839037481049   -0.52121839913539
C         6.19229870765159    4.23997285558903   -0.60653640384723
C         8.47235329343379    4.13924335597263    0.33489079622792
C         8.01934285862634    3.16564465170220   -1.92850865486695
C         4.26193668211439    5.24411790950835    2.85061630134242
C         4.30718982394985    6.51335093651074    3.69625931129108
O         3.18291175633849    4.92866620930928    2.30439856349555
O         5.31068314737875    4.57346881743334    2.73371421048701
H         1.40855334472010    3.61355930841879    0.90657187092134
H         7.00616853953723    2.67517254662318    1.97910628891887
H         3.53513353842641    4.93477093441224   -0.05991261527103
H         3.83325441476985    5.54948468683597   -1.70487276952418
H         2.33109767493442    2.11393089515802   -1.40955440388826
H         0.66353327593276    2.70010142173317   -1.27076619060401
H         1.36215035017001    6.28731539125971   -1.56827650488103
H         0.11654106461053    5.07045556718295   -1.29285244298401
H         1.24083195085623    5.51259639591695    0.00376989166964
H         2.78144200177049    3.42021440145284   -3.42065962648048
H         2.26745927346307    5.10484495563613   -3.53085644062395
H         1.06128701125527    3.82593075595256   -3.39123216813643
H         0.12457039806333    1.53624820487229    0.51378070424475
H         1.68963499030028    0.72473671243229    0.70303580253742
H         2.56925112203622    2.78761267304227    3.19355559747499
H         2.02272182018681    1.55231945126662    4.35442972985770
H        -0.96784847061151    2.69073746209601    2.35854085553477
H         0.42836321294270    3.70073606387408    2.77261770070384
H        -0.28757775585872    2.64950661163952    3.98451977685688
H        -0.65669346208044    0.09395598029916    2.30886844338312
H         0.95033373306219   -0.56396004327112    2.63898632229445
H         0.02659257885801    0.20582550321261    3.93072738840887
H         4.58347994610605    1.11204628155114    4.83741576834729
H         4.90969415147759    2.38757986049189    3.63748630682535
H         5.90801112753223    0.02582136888951    1.48755296838445
H         7.60885329456951    0.27647035886750    1.92102087026651
H         7.18643297806361   -1.25305130221654    3.76579467015121
H         5.44736544126865   -1.33105455141527    3.45931480799222
H         6.04521103670441   -0.84260084493962    5.04615882469299
H         8.28052935478470    1.09448658519737    4.11230530086466
H         7.23879976135897    2.52763690569943    4.07676069442398
H         7.09063047194802    1.36405881507359    5.38480339910182
H         8.14866556069518    1.46523376446432    0.15147592935161
H         6.54649724826031    1.42216615333835   -0.60672194646626
H         5.87532550545854    4.54479466922464    0.39315142496988
H         6.39389958557685    5.12981124161843   -1.20741456925428
H         9.37364100605956    3.54555784893855    0.47294945831442
H         8.75004638336802    5.07135264101874   -0.15227161309508
H         8.05617459524033    4.38578032980887    1.30905512891200
H         7.27720228043206    2.68432748596963   -2.56109489213032
H         8.90776632526482    2.53931608871374   -1.89429822322676
H         8.28925706824050    4.11836725128217   -2.37808563713303
H         4.92433164635582    7.25272000745494    3.18973566057341
H         4.76020196858147    6.29312573265351    4.65977365456235
H         3.30458014513575    6.90823723263792    3.83309572772454

