77
CSD_code = CELKIN | q = 0 | S = 0 | Stoichiometry = C30H42N2NiO2 | MND = 4
Ni       -0.00005099047248    0.00005310942137    4.59374852837893
N         1.16793112794525    0.58683287299354    3.12858972744394
C         0.66472856431861    0.25815148865758    1.98013844205486
C         2.49981858833467    1.00517119595843    3.23383586189124
C         2.74762063037722    2.34429008008420    3.56721764636598
C         4.06196797478651    2.76551464290316    3.68955985400982
C         5.10339367954152    1.87304060730215    3.51958883179796
C         4.84561689744249    0.54162087289246    3.24400183984840
C         3.54820441222550    0.08142791708089    3.08526497595547
C         1.56936617865412    3.26702038409240    3.76950633770642
C         1.86907046510973    4.43193945174269    4.70994364865246
C         1.07080548569059    3.79750840239362    2.42161298042779
C         3.22759915393351   -1.38416570688957    2.87066463710240
C         2.67397138797489   -1.97237914066294    4.17384944526703
C         4.41772466339395   -2.21151457985444    2.38958357421641
C         0.49331391700897    0.40045328299802    6.37779410723240
C         1.48358151739236    1.15027299948627    7.18532553849364
O         1.22618107056428    0.98500973357434    8.56732453016896
H         1.21423638691726    0.37652467809250    1.04721077535189
H         4.27927513239644    3.79497503520587    3.92469714271059
H         6.12434858824324    2.21129912959607    3.61769137489592
H         5.67501285228330   -0.14005491006274    3.14835964363165
H         1.41354718958253    2.22468516639327    6.99452511816459
H         2.50424886994849    0.82117706070688    6.93551650213546
H         1.13537092304930    0.04119275995871    8.75236665771399
H         0.76370623957447    2.66117583716348    4.21899543315169
H         2.51337019836301    5.16680878882078    4.23222854170994
H         2.35262723789584    4.08128498009130    5.61871167771548
H         0.94137899957641    4.93013888213548    4.98396980027106
H         1.85979302293843    4.35793117462135    1.92321234774408
H         0.21866587566290    4.45745064384267    2.56957568173152
H         0.76360794682753    2.98279539313680    1.76982958806525
H         2.44522594868146   -1.46362750291313    2.10726424551843
H         3.40370526752323   -1.87228657870160    4.97447992161449
H         2.43713866258678   -3.02601828680601    4.04324162452523
H         1.75265258493848   -1.44907120372994    4.48111021528312
H         5.17173859608230   -2.30295871071871    3.16773873519903
H         4.87078705391457   -1.76487939400918    1.50712168123544
H         4.08171623435031   -3.21372760431449    2.13096272346274
N        -1.16792651700660   -0.58681100742958    3.12857065995954
C        -0.49337479995439   -0.40039434940023    6.37778297063162
C        -0.66462704317321   -0.25828981157498    1.98012284583538
C        -2.49981572511359   -1.00516417144249    3.23375828087600
C        -1.48365408242062   -1.15021792441176    7.18529366564679
H        -1.21407180484794   -0.37679261995411    1.04717337873749
C        -2.74760079167241   -2.34428500597881    3.56715756872011
C        -3.54822171660488   -0.08144441586560    3.08515314981582
O        -1.22633923744241   -0.98486555163855    8.56729827958257
H        -1.41355477190906   -2.22463663506553    6.99455121903607
H        -2.50432435735679   -0.82118705383565    6.93541157393042
C        -4.06193622811536   -2.76550107600953    3.68963960618282
C        -1.56933567104046   -3.26701180375765    3.76944102601937
C        -4.84562258360934   -0.54166247684926    3.24389163696798
C        -3.22765775142414    1.38415946254462    2.87056244261322
H        -1.13555690518618   -0.04103482762809    8.75228401963732
C        -5.10338020187302   -1.87305228879350    3.51964664780714
H        -4.27921267435788   -3.79493649094972    3.92491659637640
C        -1.86904125594930   -4.43195834487345    4.70984362371960
C        -1.07071321935671   -3.79751268865704    2.42157499259798
H        -0.76369498949327   -2.66116383006823    4.21895802475643
H        -5.67503199102961    0.13998114872258    3.14814749738383
C        -2.67385534171562    1.97232713759848    4.17368779154792
C        -4.41786292473615    2.21155566489049    2.38978043972179
H        -2.44541324781292    1.46367199801741    2.10703086533290
H        -6.12432798370638   -2.21129042860923    3.61789667466022
H        -2.51315594810215   -5.16691846953375    4.23201800442087
H        -2.35280738826692   -4.08135556092478    5.61851588153395
H        -0.94133578122420   -4.93003324499982    4.98404780876320
H        -1.85966030390903   -4.35797801107859    1.92315732785110
H        -0.21856105523935   -4.45742832421600    2.56959674375295
H        -0.76350667006004   -2.98281678729094    1.76977770378620
H        -3.40363420771991    1.87247987191561    4.97430470644665
H        -2.43677918953185    3.02589352293852    4.04297732261018
H        -1.75265868918156    1.44884182572215    4.48102412341352
H        -5.17183984494561    2.30275780376080    3.16799445896733
H        -4.87096413846974    1.76516034167912    1.50722774930686
H        -4.08194150200435    3.21385147035711    2.13142275221321

