43
CSD_code = CELKAF | q = 0 | S = 0 | Stoichiometry = C14H16N2O10Zn | MND = 4
Zn        2.85204744304846    9.44241540524794    4.35757609491143
C         2.97547005302504    8.03150492575611    1.85333830668456
C         2.61822413137643    9.17080300376271    1.05239684648953
C         2.16692522474047    9.01621236275274   -0.21179503450111
C         1.72994226214838   10.13338681264110   -1.09677881169386
C         2.23007190382588    5.44899936248748   -0.88890067562873
C         2.40683035203217    6.70516392863870   -0.10249242143931
C         2.86582755912209    6.76616070755869    1.16715715996552
N         0.85472239331208   10.63767291061572    4.48773118306533
O         3.36661521725807    8.09910634398283    3.03315375856043
O         2.05399601817272    7.80470901123094   -0.78727483862970
O         1.76275109313706   10.84356939442524    5.30665363435540
O        -0.18501076503893   11.22477175571640    4.54594298897512
O         1.06740795613010    9.78934274365334    3.60171140599124
H         2.70247869178827   10.14952645663301    1.49293384357983
H         2.21554155379065   11.05810414039965   -0.80305140246217
H         1.95839436438179    9.90347600614145   -2.13480042129962
H         0.65219525266649   10.26873073928649   -1.00813107150844
H         1.18229323727843    5.32742978164675   -1.15914163198908
H         2.80439502071211    5.50497102536718   -1.81213186551300
H         2.55453755147485    4.58984339875641   -0.31241149710671
H         3.13544579308875    5.87042741546001    1.70072118613925
O         2.39189820384543    8.07312477210701    5.67631450819472
O         3.88625649054904   10.88965679200852    3.40972248492542
C         2.79439302993298    8.01159662438522    6.85267885466602
N         4.80759229506134   10.70890747346800    4.21965270198147
C         3.12926418413805    9.15714800657528    7.65427337790425
C         2.94266468473441    6.74723504104402    7.53358669528798
O         5.82903319167268   11.32691883482576    4.15413170237563
O         4.62756530088140    9.85230168149929    5.10513724160030
C         3.59791511520311    9.01013212271278    8.91304483459961
H         3.01492244836381   10.13458393288089    7.21775341451175
C         3.41565078463134    6.69394779862980    8.79853743924123
H         2.69058811804810    5.84654003586244    6.99978091074060
C         4.01620835437273   10.13486605740878    9.79743675390336
O         3.74766326086404    7.80000352479951    9.48312994956177
C         3.63205370010639    5.44028889457652    9.57894382941733
H         3.51149196694275   11.05008843899839    9.50644271459161
H         3.79611908247483    9.89961465425693   10.83606311036542
H         5.09077895710674   10.29110162817186    9.70519090593327
H         4.68746219647948    5.33734373131193    9.82661879746371
H         3.07681080364791    5.48456093198507   10.51434808163695
H         3.31146552346642    4.57601139029182    9.00800495413731

