29
CSD_code = CELNIS | q = 0 | S = 0 | Stoichiometry = C12H9N2O5V | MND = 7
V         5.98582020704884    9.46668574814683    1.39305688816682
O         7.27171685320706    9.64033137796309    0.55771663002605
O         4.67996771474910    9.23780044444896    0.29213425070117
O         5.08424601870379    8.09671147998571    0.83685440603976
O         6.97344984722849    9.89302776026606    3.05210882172465
H         7.91641662495621    9.92373227296845    2.77577379657707
O         6.62077922832722    8.58253603424235    2.83209208495553
N         4.25686178160677    9.94772580727828    2.86439876302802
N         5.47817897059334   11.48273305588685    1.04883186085284
C         3.65247584971635    9.11977632683287    3.67804787185829
H         4.16538939399477    8.18516189289092    3.87018965364425
C         2.41789665533885    9.42181969004157    4.27188151521600
H         1.95285421342030    8.70811149192330    4.93367173392297
C         1.82153167609629   10.63021054763253    4.00272457726461
H         0.87569717517208   10.89976108792480    4.45092200106825
C         2.44986321282147   11.52492517536903    3.11805530999374
C         1.91353766540516   12.79258486060218    2.75139813775155
H         0.97895767856455   13.10032661666605    3.19712035689434
C         2.55146171543158   13.58934361434130    1.85907500166494
H         2.13765910398249   14.54731948136946    1.58073229734629
C         3.77310115539552   13.18498522764452    1.24508921342573
C         4.44234761768059   13.94712301772417    0.27335674716219
H         4.03696420454041   14.90124028498892   -0.03109051605286
C         5.59637742358718   13.45056494749647   -0.28389969423022
H         6.12966221080757   14.00299474148701   -1.04129809033236
C         6.07965695524525   12.20317783284413    0.12893074374617
H         6.97372722881581   11.76629206810571   -0.30056904080828
C         4.34632297758627   11.94335260807070    1.60161408191799
C         3.68027863997656   11.11364450485726    2.56068059647450

