86
CSD_code = CELSUI | q = -1 | S = 0 | Stoichiometry = C36H40O9Re(1-) | MND = 6
Re        8.80620982655791   16.57770327089939   14.44061936884434
O         7.87311712623956   18.16931231562039   13.22050623866153
O         6.30080533984602   16.25559192984836   14.91151185867480
O         8.27768810697175   17.77080570005415   16.03441795078122
O        10.18087642260626   19.02844683249208   17.88128854881165
O         9.97337347220524   19.34717857308264   14.55081872138930
H         9.18153789326913   19.46737916297956   13.97868800705529
O         8.24977497575403   21.03402178370412   13.21556283804771
O        11.78009358584794   17.05453024039370   13.75499723395459
O         8.63179119088560   14.69005204099269   11.99825444032076
O         9.51432467650181   14.24551559990620   16.33640685983375
C         5.51194893725876   17.71435285369995   13.08815657374206
C         5.61793544867460   16.32746664782146   13.67071477113155
H         4.60560338754473   15.90672850559116   13.80178897458018
H         6.17946894699473   15.66700057856340   12.99699261697928
C         5.63290750311740   17.00226850610637   15.92253466120812
H         4.62706172621061   16.57017997115972   16.06406108795617
H         5.50755967969719   18.04414552426809   15.57906087508259
C         6.40322593454284   16.98926834765437   17.21237814740934
C         5.82884257730787   16.61293001056482   18.40826415974491
H         4.78999272212357   16.30107605594877   18.41819436159637
C         6.55075464899870   16.62645064306044   19.59456189670735
C         7.88747008278007   17.00833455122284   19.54227553032143
H         8.48146525184322   17.00361153943375   20.44754366876677
C         8.49764983946075   17.37651501642051   18.36224352083257
C         9.96651935496176   17.69054741732371   18.28371333689485
H        10.45169901905938   17.51362235095638   19.25955540938293
H        10.41949815787196   17.00687871202802   17.54547697842855
C        11.28434883540853   19.21977036898947   17.02267244926799
H        11.34626052870676   18.39572392007660   16.29857295947370
H        12.22083293749524   19.24626492577935   17.60993377568771
C        11.09727211247430   20.51439077580372   16.27898649159668
C        11.57055309006673   21.70690509528219   16.79375521686828
H        12.10485738036132   21.67989577636326   17.73250257319706
C        11.36702779437221   22.91814747348552   16.14531085197280
C        10.66585699206560   22.90553853249599   14.94910458286941
H        10.49403309863300   23.83474570860695   14.42035313421744
C        10.18746178891138   21.72766411534225   14.40218273802590
C         9.47538551762062   21.71167471624548   13.07557750498390
H         9.30722286485072   22.73776757592434   12.70813169917189
H        10.10588820079545   21.18989699295754   12.33151614203610
C         7.67852692487987   20.61693908993021   11.99273292385594
H         8.42082917317893   20.02348355793362   11.42956406771360
H         7.40914071265436   21.49644238708728   11.38418128549518
C         6.46788419947195   19.77441485249782   12.27343954458114
C         5.20958813728864   20.21415358268863   11.93108641125199
H         5.11311317900830   21.18928495871032   11.47043633458406
C         4.07694271993848   19.44057405798097   12.15612713374804
C         4.26476040538161   18.19447086904503   12.73286546906207
H         3.40106839364121   17.56164730081379   12.91014179961372
C         6.67647851071177   18.50996622587996   12.89912903772835
C         7.75823655857184   17.39633339934370   17.15289783781838
C        10.38829545749538   20.51058051296290   15.06872120591697
C         2.69529320457479   19.92796322328447   11.79214027399538
H         1.97792589856569   19.13962238684820   12.05233898799088
C         2.33024972390563   21.18322392530085   12.58847592794007
H         1.31446287722139   21.50362263922565   12.35845156993521
H         3.01118346802041   21.99687487023829   12.35055260000624
H         2.39959699886580   20.98394291166515   13.65567742284700
C         2.58072907066035   20.19359212257755   10.28906868724018
H         1.56476403392791   20.48798849003439   10.02764520802426
H         2.83936795717490   19.29776359122683    9.72828983795741
H         3.25742206243961   20.99016223621055    9.98925599443459
C         5.90052614661712   16.21117241726762   20.89343730627177
H         4.85181043783753   15.96543849216955   20.68466106524270
C         5.92479265046431   17.35148831611662   21.91388550276033
H         5.43859380890784   18.23344388316517   21.50254040969016
H         6.94862956633812   17.61531089097772   22.16676950849271
H         5.40673102207801   17.06079357506529   22.82751353801970
C         6.57339882850430   14.96182996631506   21.46759033422790
H         6.06492488066155   14.63241041585178   22.37339767154912
H         7.61313028124155   15.16667005501448   21.71032898035820
H         6.54774550194506   14.15440532920664   20.73913288869602
C        11.89253837621171   24.21494089503766   16.71469038922909
H        11.60766958046947   25.02584564358562   16.03351920966119
C        11.27237358147127   24.50393231683123   18.08306067350600
H        11.61069610387975   25.46829192754926   18.46003892752145
H        11.55097509181075   23.73560176446424   18.79931646714078
H        10.18771189859016   24.51949895440809   18.00708776281678
C        13.41993834607147   24.18881589025762   16.80807150181675
H        13.85326412774033   23.98949375389667   15.83031143944069
H        13.74736096296141   23.40927446392304   17.49105276178800
H        13.79708138338572   25.14488781423964   17.16849057662489
C        10.66790831281171   16.86074134354043   14.00363837485444
C         8.73652244107519   15.41031282905626   12.89914492438846
C         9.29832002444420   15.12675121142117   15.62221146764692

