37
CSD_code = CELZEY | q = 0 | S = 0 | Stoichiometry = C17H14FeO5 | MND = 7
Fe       12.48363842897944    1.99383407382732    4.87689297478080
C        10.96804921865153    1.47402400603680    3.44808150527319
C        10.35407145673241    1.69176985730299    4.72071365765117
C        10.59487470284349    2.96214458666565    5.26039020805981
C        11.42761302839218    3.80754550910933    4.46131218962791
C        11.11166125455760    3.94007666359643    2.97787290273167
C        10.77082143126331    2.55330313032968    2.40091857484501
C         9.98517875975616    4.93069793058829    2.69700011678393
C         9.26516637046240    5.56134455764557    3.70139352940800
C         8.24288287529944    6.44123825607818    3.38581229268134
C         7.92866045439213    6.70648236306084    2.06553693810868
C         8.64165481179093    6.08045644443307    1.05674339937987
C         9.65978816972362    5.19938758406868    1.36982412698202
C        12.31689119318425    4.52517642413364    2.23549808836761
O        12.62515137094352    4.23740732748164    1.10898715830515
O        12.96440448888325    5.43041359405987    2.96810865195822
C        14.08938683103730    6.03877079374114    2.34699641757348
C        13.35913534897730    2.57434901977962    6.29080593270043
O        13.98864401428327    2.94509881679683    7.17352627919937
C        13.72265028127133    2.32974438344911    3.63379123530180
O        14.58215647168720    2.53772927112971    2.91065803931821
C        12.94818867298138    0.35187114453022    5.31576307230959
O        13.30973828255173   -0.70247011076361    5.58097028663901
H        10.86752258810688    0.47373184070938    3.03184395760577
H         9.78416428956173    0.93510440717621    5.24749701323354
H        10.22669287055755    3.25351422167935    6.23811140754726
H        11.71710163423429    4.75753030629537    4.90429420018474
H         9.72699674512223    2.52961021950784    2.06931906828232
H        11.39784961380224    2.35690306120340    1.52919576803319
H         9.48651821722843    5.36673352026937    4.73867831524818
H         7.69045009347185    6.92118981486544    4.18044805062011
H         7.13312273986317    7.39519120129374    1.82315404805754
H         8.40444710373932    6.27820026606309    0.02187091151605
H        10.21433371163286    4.71711498235817    0.57867092593516
H        14.49599382569468    6.73756293336141    3.07309997524983
H        14.82953046669158    5.27959739997687    2.08693588463439
H        13.78396818164834    6.56032019815891    1.43788289586564

