100
CSD_code = CEMCII | q = 0 | S = 0 | Stoichiometry = C49H38IrNO9P2 | MND = 7
Ir        2.18347627656639   15.75381782139355   20.80503665436884
P         3.90555884102546   17.33875487868250   21.33969615465121
P         2.98680357702130   15.50645219624960   18.67179389326604
O         6.82177673145712   19.94606832153934   16.88865201471449
O         6.89901279313907   17.65078738766374   17.06083678025011
O         8.52330120410458   14.06822759943884   20.20980793635547
O         8.06680490608017   16.30039742237300   19.88072089628324
O         1.88380712266041   16.04573462155371   22.81837676116311
O         0.73804160081616   17.22731277135755   24.30263678138879
O        -3.01395356952490   19.85868675697876   22.34327303937277
O        -3.05505055448587   20.30181165160620   20.24662102101455
O        -1.94185185827897   18.71065439052662   18.66633718928846
N        -2.62347083270899   19.68921610358058   21.20255338304220
C         5.29803757951059   16.56075998735207   22.21346320527022
C         6.45768123966476   17.28057800763816   22.48875744317291
H         6.52443111587660   18.32148442559471   22.20277784663195
C         7.51566717441366   16.65944063293517   23.12448847979109
H         8.41258028327689   17.22103610870496   23.34438989534058
C         7.42922129823707   15.32064268508006   23.47783195349270
H         8.26149447596528   14.83734328718097   23.96891967555034
C         6.27637797784985   14.60387485998106   23.20560897179976
H         6.20753915939778   13.56264384991773   23.48346414436038
C         5.21143258016330   15.22359658341478   22.57662829240802
H         4.30409664626356   14.67072849842196   22.37114924042650
C         3.32718952672198   18.62810580769881   22.47688839540751
C         2.33334958516243   19.49451991114603   22.02158778668228
H         2.01026862416833   19.44302999607654   20.98946705852216
C         1.74982813201483   20.40009521532098   22.88584034364370
H         0.97638246899686   21.06324752132345   22.52783551756395
C         2.13529287968036   20.43311529023444   24.21587626240394
H         1.66181959191799   21.12365910037645   24.89671276968346
C         3.10773913460228   19.56287937142523   24.67640144931935
H         3.39183941602146   19.57223875428372   25.71773178475895
C         3.70107761335211   18.65817912292487   23.81478337808835
H         4.43741440126394   17.96091383250567   24.18779435136821
C         4.83694223629282   18.25830956200663   20.05876231252435
C         4.81839697250850   19.64096712385385   19.95598423453977
H         4.29745107825107   20.21765122564188   20.70487558397833
C         5.46251607675002   20.31758128603812   18.92380650803233
H         5.44380577670500   21.39184327583391   18.85413130967622
C         6.12476403743097   19.55325305595320   17.99599569916008
C         7.32893226351354   18.76459415699836   16.30846407290608
H         8.43043336338106   18.80174649092971   16.30015076590696
H         6.96053140794157   18.67514308783427   15.27478451415253
C         6.17248652055355   18.16308376435610   18.10144786741060
C         5.52680966528336   17.48072656554050   19.10625886601997
C         5.70322576929822   16.02082092461859   19.23571230301498
C         4.72134775827380   15.03799558665598   19.00153652799708
C         5.00738809661439   13.69386777474032   19.22453759781009
H         4.22521457039214   12.96434965400041   19.07930615294478
C         6.25992373917792   13.25057107003362   19.63220139147150
H         6.46513987366355   12.20742808898946   19.80252910523467
C         7.22627513046741   14.21011691640321   19.81376661938690
C         9.06501371733513   15.37130730987724   20.24194173536367
H         9.90571034571320   15.43754799379755   19.53272950846041
H         9.42395935336302   15.59425189272253   21.25836407821510
C         6.94897272574234   15.56118989154135   19.60980156342837
C         2.40616436357340   14.28286564878510   17.44289479848391
C         1.02572312871680   14.18996756811545   17.28726400182614
H         0.39038088198164   14.78947683146111   17.92377862070233
C         0.48041506456471   13.33626086571041   16.34671834124628
H        -0.59141410557447   13.26686814052469   16.23614207791898
C         1.31183968453448   12.56629019885365   15.54951077416478
H         0.89029322583103   11.89414636391040   14.81742480749395
C         2.68613350203857   12.65894215754791   15.69389186338517
H         3.33585805533413   12.06106166968044   15.07162500571665
C         3.23612592891951   13.51483419194255   16.63236326961578
H         4.31041454585932   13.57436689218902   16.73628653589054
C         3.16383730331530   16.94517395092639   17.55319124772641
C         2.63571637895812   18.17720629422064   17.91955934681067
H         2.13354466200346   18.26944163454659   18.87249102527623
C         2.76807249797744   19.26944095436968   17.08178427714535
H         2.36237073315966   20.22582314029655   17.37592236849365
C         3.42147561733071   19.13637617820807   15.86755942440960
H         3.52722450646580   19.98942704572356   15.21412727657299
C         3.93955475917304   17.90694206647013   15.49330576121852
H         4.44346918696317   17.79832548643067   14.54366240365297
C         3.81345960137240   16.81371097733130   16.33011824235788
H         4.22690694058382   15.86027227511531   16.03660722814508
C         0.54230723148107   16.92893722364562   20.71172158000786
C         0.15253094567512   17.37906434546920   21.98713319611846
C        -0.89665430719717   18.26165279220136   22.12224878603299
H        -1.17655994814710   18.60795252028405   23.10665673844900
C        -1.58106683705698   18.72975666347923   21.00379772557948
C        -1.23070464558611   18.26574247921214   19.71628800199763
C        -0.17411463545754   17.35990139390331   19.60447175744135
H         0.09980454554645   16.99545647802142   18.62561548092187
C         0.95325473939020   16.87245795086259   23.16033638577315
C         2.65550417364169   12.75350889000920   21.92624717315856
C         1.93676514617980   13.10671896269431   20.85567326112642
C         0.87441768150829   14.11312852342138   20.87830010689511
C        -1.65453862109918   18.23196742087600   17.37530707097862
H        -0.63500591352939   18.48585294457699   17.06660161116156
H        -2.36606915539109   18.73327792437924   16.72150654487737
H        -1.79745743837218   17.14900010737215   17.30646484393499
H         2.42069585789005   13.14637600022394   22.90225401296540
H         3.46464790944781   12.04341885215480   21.86844174440038
H         2.15007502425963   12.65174845308927   19.89139535250346
H         0.36358753240371   14.14726269972719   21.84161617749206
H         0.14785663026296   13.97081537113672   20.08036468145987

