76
CSD_code = CEMGAC | q = 0 | S = 0 | Stoichiometry = C34H38IOPRu | MND = 8
I         3.31338269167000    2.31571345509008    0.35360943113712
Ru        4.86281049066441    0.11371184266974    0.28201598223953
P         3.33104021709863   -0.95400339639883   -1.04290170503275
O         6.46312830976542    1.17610760586767   -2.00897966180409
C         5.81139647327919    0.75918717272523   -1.15431010326080
C         6.33085524646633    0.28317397861424    1.98417627723880
C         5.02299859460143    0.28697829552533    2.53701866754395
C         4.38681985511276   -0.92567945671502    2.21360206640414
C         5.32183539277907   -1.70269067542598    1.47310132653963
C         6.55020301242307   -0.98142018458990    1.35710451060119
C         7.83257063743591   -1.63894013683069    0.90985390795197
C         8.56746834881136   -0.94221896886720   -0.24480584722535
C         9.22177541877513    0.37704166251770    0.15125270277485
C         9.93553917221854    0.99881638801904   -1.04551555336721
C        10.19380260381096    0.11353018335974    1.29760782614587
C         9.51614038283443   -0.56604724092494    2.48571518364858
C         8.81848473234455   -1.86970371061508    2.08663913653874
C         8.13814529704861   -2.56826470858238    3.28388813911755
C         7.71521929231111   -3.99313086804933    2.92102823557451
C         9.05054718704881   -2.64000432272052    4.50980465837802
C         3.94932519671788   -2.29549150654696   -2.11348164087173
C         5.30423348107958   -2.59798277609432   -2.12273607947514
C         5.78811228726566   -3.61084105765195   -2.93185167540966
C         4.91741185829811   -4.32415005124337   -3.73796223470764
C         3.56372654733736   -4.02248653619191   -3.73631697067414
C         3.07753058251707   -3.01131987654925   -2.92991013580924
C         2.10516522417040   -1.79548012576431    0.00200624174783
C         1.15031274276503   -1.01310047983179    0.65156011561257
C         0.26252874768861   -1.59786138027431    1.53448940487314
C         0.32691970714058   -2.96041266534231    1.78439216216391
C         1.28209875487177   -3.73781269948274    1.15017444872662
C         2.17430511409940   -3.15987054431707    0.26411236399596
C         2.30876613324481   -0.04335508621471   -2.24514636379914
C         0.96277816780336   -0.31603546466840   -2.46423461812569
C         0.26649829787234    0.39257133797893   -3.42741302674605
C         0.90363173606170    1.36746621990739   -4.17580705457531
C         2.24634016336444    1.63663657150710   -3.96492494658838
C         2.94698049460128    0.93313293163128   -3.00463053801902
H         7.06784371310175    1.04590058459011    2.19041151043590
H         4.61705040804022    1.06842577795036    3.16752220538109
H         3.44751473174096   -1.28137615020143    2.61834605569989
H         5.18313377996302   -2.74376254107517    1.20293233569686
H         7.54571031710722   -2.62944473294458    0.53079444115405
H         7.87470043662573   -0.77702872202600   -1.07336119509928
H         9.34708980757001   -1.62076810954050   -0.60409929215954
H         8.44915330720663    1.07903494045940    0.47951454462135
H        10.41276121210722    1.93350172926741   -0.75992267112471
H        10.69998310464189    0.32529692226551   -1.42874427417097
H         9.22613103997440    1.20614718255072   -1.84319874359528
H        10.64404808368604    1.05252154992419    1.62751530697818
H        10.99995790907148   -0.52882889688180    0.93197037619616
H         8.79972006671102    0.11252373004756    2.94944213269323
H        10.28455794000219   -0.78388859377817    3.22803135155392
H         9.59287943799042   -2.54772130721700    1.70525513820275
H         7.24459636821835   -1.99743319825306    3.56192958327022
H         7.23741660053602   -4.47016812314673    3.77413307704006
H         7.01105737567737   -4.01250942576861    2.09445494869567
H         8.58588261354340   -4.58445126140232    2.64369747192077
H         8.59177659435472   -3.26646568817983    5.27198529636460
H        10.01206216743055   -3.07615486616659    4.24655451312237
H         9.21636067494205   -1.65882245836163    4.94507846514692
H         5.97461321092725   -2.02778257286312   -1.49057969932347
H         6.84345341102604   -3.84092632610763   -2.93506530481079
H         5.29238193202029   -5.11421086547182   -4.37142261786338
H         2.88631139574466   -4.57755539804348   -4.36839741787202
H         2.02323333234966   -2.77199785752596   -2.92913563993966
H         1.11010328334344    0.05160716278645    0.46140716666771
H        -0.47665081507024   -0.98857532604492    2.03298807573282
H        -0.36463796010524   -3.41581131417486    2.47774004485302
H         1.33632841297073   -4.79846212868777    1.34894387157128
H         2.92210823540450   -3.76749635883032   -0.22856455342676
H         0.45273735835899   -1.06699295124381   -1.87655085872558
H        -0.78119380857042    0.18439944074159   -3.58837771870149
H         0.35182810570532    1.92258381804056   -4.91943626880198
H         2.74441089002618    2.40122484355912   -4.54131992981590
H         3.99205673280984    1.14950376563541   -2.82029636111534

