79
CSD_code = CEMHOU | q = 1 | S = 0 | Stoichiometry = C34H41IrN2P(1+) | MND = 6
Ir        3.03259536788736    8.54432057031113   10.38943289344223
C         0.99796243508305    8.58545794283705   10.62527820198714
C         5.09459690789056    9.12187672070531    9.98473947197603
H         5.21201071225687    9.27333785002621    8.91108073291494
C         5.45041012319622   10.33474742699392   10.80637050969307
H         5.13829489054102   11.22586033420579   10.25726410380974
H         6.53849769179020   10.39156844937498   10.90672181302017
N         0.13870289340147    9.62832054540677   10.65432307428130
N         0.23064292645863    7.48287517579125   10.77509458312489
C         0.71254207429122    6.12278229452817   10.80745804357551
H         1.77876927541230    6.15345585199808   10.55867553427888
H         0.18652990398573    5.54645621476536   10.04020841213480
C        -1.08677871393433    7.83094082336848   10.88983085345532
H        -1.86714193235211    7.10859584770776   11.00592786750791
C         5.10923916445380    7.82211406683381   10.44740978832981
H         5.19344982005673    7.03239425694089    9.70634440976647
C         0.50346108376382   11.02906430174392   10.53438060026818
H         1.59384381494387   11.04611723742690   10.42999296725437
P         2.69259791807796    8.04558288347176    8.10491041060677
C         3.26871521443005    8.30785706590519   12.53144821361225
H         2.32181428033085    8.03358188490779   12.99425598294708
C         4.37158820694871    7.32188556669306   12.81811692017456
H         3.94810418983988    6.31606909209143   12.77276282302376
H         4.72740565946441    7.47170140080563   13.84214454993202
C         1.17076069593762    7.16211033347089    7.58751532623654
C         4.00665583163420    7.08415914022560    7.28223167588259
C         2.10034960187558    9.43539757778366    5.73955259384148
H         1.84096436556814    8.47005681014526    5.32721635709962
C        -0.02817154330431    7.86456220950616    7.69709751166356
H        -0.00893703791335    8.89526313717314    8.02184197449616
C         2.87139065654216   10.77291915347471    7.58349996854119
H         3.20729131991849   10.83829125730201    8.60968176546677
C         2.76580377740556   11.91166268586752    6.80419429981799
H         3.02355706372649   12.87498607308406    7.21767152903240
C         4.29088538262418    5.81576176727789    7.79083516296360
H         3.71763916710517    5.43620865901331    8.62814213830018
C         2.54258767781592    9.52933432574139    7.05730941095312
C         1.99547840551088   10.57507363492984    4.96427853483235
H         1.65418495605912   10.49882230758565    3.94319685260577
C         3.45190503277195    9.65279800638391   12.22487620652871
H         2.61935958411173   10.31551556196796   12.44416025505980
C         1.14209470498843    5.84861681727305    7.13511523914586
H         2.05805376899528    5.29056168206970    7.01485796914504
C        -1.14501744163198    9.17943344255068   10.81547718224769
H        -1.98864408734545    9.83440811172357   10.86645415337925
C        -1.22982122376782    7.26526875416439    7.37558704217164
H        -2.14969594699735    7.82380426006234    7.46164190403254
C        -1.25137213714164    5.94988077049575    6.93806572361752
H        -2.18855004526153    5.47787054153173    6.68698462435095
C         4.77373888535700    7.58515174460612    6.23757065639177
H         4.58375631352970    8.57537972391696    5.84964669767770
C         5.54985202838738    7.41731098649805   11.83364986058172
H         6.29481130055384    8.12502970430477   12.19597525448964
H         6.03591875287230    6.44226054997475   11.77742166405153
C         2.32794451333595   11.81294239493423    5.49407367170504
H         2.24400176210441   12.69932489168504    4.88458041974658
C         6.04385162198034    5.54645503086575    6.17979781055988
H         6.83117374253053    4.94922545533630    5.74692557237575
C         0.50940244408174    5.47953487495990   12.17482823626008
H         0.89206868873643    4.46343704024976   12.16112093682702
H        -0.54518406437264    5.44362668288790   12.43474939002470
H         1.03577258395063    6.03744794198729   12.94468640700158
C         5.29674116715827    5.04765608582545    7.23559603352385
H         5.50347132331594    4.06359166500718    7.62880329225562
C         0.09604287462761   11.78863852115554   11.79541898853993
H        -0.98550292779882   11.85757292516969   11.87600371643818
H         0.49854397020675   12.79676419842252   11.76399126333554
H         0.47507449412614   11.29220326582308   12.68586745745527
C        -0.06433830646068    5.24945012382834    6.81146286941439
H        -0.07337655605116    4.23052066624355    6.45512689240716
C         4.79547862665805   10.34582234366220   12.20074024265720
H         5.45133494334334    9.87560154056547   12.93298895451944
H         4.66204001304229   11.38292801073485   12.51161324985164
C         5.78482230298956    6.81457911922917    5.68858577772335
H         6.37312063466969    7.20942889492588    4.87439507300845
C        -0.12409654841750   11.64870830980396    9.28812826978995
H         0.21202511510021   11.13691935867763    8.38936637390024
H         0.17136704494328   12.69092297326116    9.21278645836317
H        -1.20916318195473   11.60513414979484    9.33354034658064

