47
CSD_code = CEMJIO | q = 1 | S = 0 | Stoichiometry = C13H24Cl2N6PRu(1+) | MND = 9
Ru        9.40390570034366    6.62935702258412   11.20091780732190
P        11.46594002549039    6.16204491947495   10.43291133375404
Cl       10.48539988768218    8.38926018407706   12.32273094506473
Cl        9.74581170089126    7.76170459198851    9.14088285512134
N        12.40787279057881    5.14079633388733   11.54583009221279
N        12.71236248753414    7.27555537227425   10.14739107555535
N        11.52283713174931    5.00254971046962    9.19694140836337
N        13.70370945334543    4.71530014842398   11.07324349331507
N        12.84419180616090    4.66220427277497    8.79967466960098
N        13.88422537864045    6.64351003124918    9.63844302147316
C         8.72510727850880    4.80981140682838   12.38676545534159
C         8.25008024667346    4.65045182319181   11.05874349392968
C         7.46461492872650    5.65468662257341   10.47657363220914
C         7.09905888884749    6.80408116864100   11.22540659558522
C         7.55024886971592    6.94998094764819   12.53751822158950
C         8.38403953899871    5.95868055174934   13.11855273484577
C        12.40792624842134    5.63826345376243   12.91242599733312
C        12.62218436316765    8.67369908980914    9.76503024605953
C        10.57030646650212    4.88470228998314    8.10996860516467
C        13.45680699261909    3.89469207496658    9.81795570359037
C        13.63342385823674    5.83814502813179    8.45759498491850
C        14.54394920705698    5.90969788978311   10.65714784001609
C        14.40794852778053    3.88448555413495   12.05784038401373
H         9.28141958406814    4.00826762230508   12.85951206013267
H         8.44601720545992    3.72941768143325   10.52242248583733
H         7.06288579373074    5.52195713331842    9.47795453926635
H         6.43443621575326    7.54052932932934   10.78861945085204
H         7.24210134141724    7.80351513429518   13.13110464560208
H         8.68987805525021    6.05863886644034   14.15424871560534
H        12.45290623823327    4.81216121112662   13.62156032770868
H        13.19985748568144    6.35996699936063   13.12267370700216
H        11.46413209115573    6.16953837196061   13.04961744570896
H        11.83095184030682    9.13266052314202   10.35232763813334
H        13.57220520638329    9.14397854886596   10.01383819216218
H        12.41204822880969    8.80765681787924    8.70296660919115
H        10.56824533511442    3.84948734306204    7.76951472034498
H        10.80651502977149    5.54052549805445    7.26994486910872
H         9.58782951485040    5.15169859214675    8.49045269915785
H        14.41869340346729    3.51108553270712    9.46868620983607
H        12.79109982367888    3.07415717123631   10.09810335639591
H        14.58300643725282    5.52459490368624    8.01801128353676
H        13.07761536965940    6.43733805949575    7.73453047397143
H        14.68398310600622    6.55047709068289   11.53109050854111
H        15.50917705543021    5.54402763814543   10.29871550955041
H        15.29405809488133    3.45091934390195   11.59787850426734
H        14.71501022321992    4.48098051286534   12.91358171655161
H        13.74977554274311    3.08345958615271   12.38965373515644

