119
CSD_code = CEMJEK | q = 0 | S = 0 | Stoichiometry = C48H66Br2MoN2 | MND = 4
Mo       10.73171434502330    4.68356146976365   -7.41002771822731
Br        4.92565993653307   -1.23583179138838   -0.73765770485697
Br       14.97940513965522   13.10646992677352    1.28941449683076
N         9.47244564646807    4.16539018807826   -6.29508811689042
N        12.06777614833681    5.49190244554153   -6.61119939011335
C        10.00654466245125    6.39729287208176   -8.54944079555695
H        10.02276230671825    7.28933071269725   -7.90147828827831
H        10.74420305415628    6.60280108181007   -9.34547101770235
C         8.62457585691108    6.38143122327814   -9.22571548097249
C         7.51425549034551    6.36324368848005   -8.16002311263903
H         6.53793858064304    6.24856202540666   -8.62898337007530
H         7.51952678708238    7.29994482732047   -7.60540727328555
H         7.65958919770922    5.54556668640295   -7.45354244032100
C         8.46192661557632    7.66095502214751  -10.06002395119880
H         7.45339740484951    7.74925620860249  -10.45964934470239
H         9.17489579970532    7.68074746249275  -10.88260212795143
H         8.64805247108635    8.53022932437699   -9.43183026741896
C         8.47638377858408    5.12834685533132  -10.06718493528340
C         8.77057789415421    3.90110895046510   -9.47961170608107
H         9.12778066789796    3.88377287629494   -8.43736692064068
C         8.58260076571341    2.71138395855872  -10.16139622738646
H         8.78779444891900    1.76757625360839   -9.67337465898303
C         8.12051518073262    2.72621068339327  -11.46704700174690
H         7.97459701162013    1.80128598920599  -12.00494605968559
C         7.84563261670384    3.93921643587253  -12.07235319960577
H         7.48921777412486    3.96315402113543  -13.09209641187510
C         8.01117430939953    5.12619296626962  -11.37819652721126
H         7.77062598545772    6.05166908986217  -11.87614807331631
C        11.62697929620061    2.78765080936852   -8.06843537358765
H        11.85751246357851    2.09996457877622   -7.23955754942814
H        10.96104910084065    2.21466039794741   -8.73407797402004
C        12.93785887664971    3.03891446509187   -8.83794424727280
C        13.29082171888532    1.84286323414695   -9.74317621189661
H        12.50469501453200    1.63415987616101  -10.46499456553993
H        13.43896188009762    0.95121681722488   -9.13651030011745
H        14.21000564177997    2.04239553829090  -10.29198636409965
C        14.09606512461206    3.21076528677734   -7.84914004494598
H        15.02938826981801    3.41122211041607   -8.37226379492584
H        14.22538311792054    2.29099540469289   -7.28045692344725
H        13.89925747171825    4.01692458024404   -7.14503948034603
C        12.72079186469416    4.27089661962029   -9.70873234929275
C        11.75990359628060    4.22804378108358  -10.72466839549188
H        11.16577748994541    3.33722210234980  -10.87751054104184
C        11.58189491095206    5.28956196357614  -11.59454045112298
H        10.83854331555164    5.21856618191044  -12.37561449035106
C        12.35661538739538    6.43017474959234  -11.46787598145256
H        12.22525718681637    7.25856730536884  -12.14863897732331
C        13.30689333690750    6.49382812577349  -10.46365721211990
H        13.92018063021016    7.37719042292208  -10.35913463482434
C        13.48847207407172    5.42971142864906   -9.59449484685295
H        14.25539133116428    5.50554148296018   -8.84023042680109
C         8.76916559840632    3.95059985839687   -5.17591729987527
C         8.24340040997586    2.66674659263455   -4.90308349462898
C         7.53663159836226    2.44855710958533   -3.73752719079850
H         7.13776083985688    1.46225250245629   -3.54173226892835
C         7.31764235136970    3.46600220706952   -2.81809122048082
C         7.83186374360617    4.72701675094120   -3.09128487203573
H         7.66670067834515    5.52850404896363   -2.38351504976486
C         8.55023610057638    4.99162968447236   -4.24160517531644
C         6.59032255014461    3.19385425851148   -1.53288536381993
H         5.96592975597450    4.04948860127951   -1.26537800122859
H         5.94443396179414    2.32527470152197   -1.66521451644873
C         7.59411711756157    2.93416810026803   -0.40307483622042
H         8.23575012471060    3.81270646148523   -0.30255746532432
H         8.23919998000497    2.10043899733468   -0.68578751116720
C         6.93395383315236    2.66144832041101    0.94935145409963
H         7.71317175814659    2.59931867774327    1.71401223176360
H         6.29263618990998    3.50939724993070    1.20130338748903
C         6.08887620064948    1.38816427958318    1.00247791404205
H         5.57019484494820    1.35420023065757    1.96504119029443
H         5.32712073487143    1.42581822163508    0.22217209905859
C         6.91593530810186    0.11442733451744    0.84455960612438
H         7.63131149732512    0.03781024504416    1.66900685926244
H         7.48232522829983    0.14946027025010   -0.08756161994798
C         6.05718143812018   -1.13579617973543    0.85565089319264
H         5.37885324797240   -1.15534319674976    1.70815531649397
H         6.66185516271351   -2.04193856654988    0.84453902609104
C        12.90324232104228    5.96688496218788   -5.67747342553429
C        13.62498772395335    7.16794033473445   -5.86418732416313
C        14.50936301642531    7.59660447000235   -4.89202994280564
H        15.05497698205242    8.51658935935478   -5.05489456871124
C        14.71787798843706    6.87996013117974   -3.72270645312313
C        13.98853790001395    5.71384789034356   -3.52828263511938
H        14.12574016597332    5.15261307099582   -2.61348487130696
C        13.08801467665631    5.24949315212127   -4.46648677808164
C        15.66088456233966    7.38776911064493   -2.67040787739321
H        16.50978705274804    7.88812245546648   -3.14214390757391
H        16.04354978929724    6.55307485427082   -2.07886075447075
C        14.95056675960047    8.37888207855501   -1.74163521621842
H        14.56796712108771    9.21145198436669   -2.33584168877262
H        14.09366644175534    7.88250721849191   -1.28048711877165
C        15.88109873887548    8.91178957665550   -0.65610446008059
H        16.74758003298889    9.38540735092459   -1.12408025692417
H        16.24726087598901    8.07818126690467   -0.05100283750424
C        15.17995164023851    9.92431652479161    0.24541232227540
H        14.82544305371519   10.75866495929755   -0.36423134481627
H        14.30713691489414    9.45464464090782    0.70691376224991
C        16.10809094604697   10.45201566522451    1.33654147770921
H        16.99055346091839   10.90583223902723    0.87877448864325
H        16.44765909520157    9.62014899343150    1.96112509715202
C        15.43103467310633   11.46042095444265    2.24510796289513
H        16.08076702131305   11.76448085770908    3.06495355859169
H        14.49133191219534   11.07718169922513    2.64146032049936
C         8.46402483980726    1.56957323915994   -5.90116045535606
H         8.11057458625516    0.61730028282068   -5.51395822285283
H         9.52657082425956    1.48816901660045   -6.14092488834315
H         7.92877195695274    1.78976941509589   -6.82723339286759
C         9.07728328521990    6.36874688912727   -4.51730213654362
H         8.35390193960437    6.93376492993568   -5.10853475951085
H        10.01182774177934    6.31607133121344   -5.08393940975252
H         9.24887787974423    6.90609122885776   -3.58732608376205
C        13.42380957104112    7.99455718237623   -7.10154661563357
H        13.05092120519976    8.98369168718253   -6.83576761481607
H        12.70570841719678    7.51607191958625   -7.76556447088215
H        14.36713748406408    8.12555050862791   -7.63166828591925
C        12.29554955541472    4.00431367445378   -4.21335562650359
H        12.75110987060382    3.41243304737491   -3.42262661539593
H        12.22067106899895    3.40308752731080   -5.12395775003127
H        11.27714967490241    4.25966684062987   -3.91070653086611

