58
CSD_code = CEMMUE | q = 0 | S = 0 | Stoichiometry = C26H27IrN2O2 | MND = 6
Ir        6.04963881720975    6.64014241531817    2.76929171209231
O         4.92823739253541    4.68904956478133    3.15096717566003
O         5.26719202689097    6.05349959016873    4.82440876819180
N         7.86763773930843    5.95052738724818    3.43270323611018
N         4.59105286800377    8.00757587619903    2.26096483383036
C         4.36769992989204    3.89435408993120    5.33837063636628
H         4.05661454453027    4.35892026672199    6.26986651269766
H         5.17562463793978    3.19265504574282    5.54216955243764
H         3.54328646214846    3.34957823179828    4.88554491472299
C         4.88298322357138    4.94480160696246    4.37511159514629
C         5.55791220133849    5.63019742262416    0.03501109760061
H         5.89947188524337    5.40859843700850   -0.97850399119412
H         4.58731354424336    6.11642608062918   -0.03819873953830
H         5.42351567661214    4.68669249373262    0.55871830406199
C         6.57044197906365    6.51933092002156    0.74752740606142
H         6.60784918117326    7.49139575662737    0.24520952032658
H         7.56708942609374    6.07621948122611    0.65174787754031
C         8.09082054211413    4.64178321636857    3.85731406229673
C         7.72825577238306    3.58361300072931    3.02296396453390
H         7.32023795365540    3.80293646005261    2.04909794032179
C         7.88113215100446    2.28048137359698    3.45118771015587
H         7.59560848393150    1.46710652863973    2.80082106906251
C         8.38578643875875    2.01264436153262    4.71477563080661
H         8.49194715363804    0.99203981136912    5.05141954097910
C         8.73911284194295    3.05897724205784    5.55047650603715
H         9.11820776348298    2.85598025948719    6.54153991242603
C         8.59828121065514    4.36758255275718    5.12826224543891
H         8.83534229598639    5.18435365477568    5.79458054763080
C         8.73333676070891    6.89454832893309    3.68034050706783
H         9.69457425124034    6.65320404623252    4.12800007180858
C         7.03297743283307    8.28669534331561    2.88962274640891
C         8.35192137037207    8.23698613148034    3.36343017135245
C         9.05313063516354    9.44270281165885    3.51972333880677
C         8.39030852449924   10.62831014567455    3.21211779540124
H         8.93221847081122   11.55690033305904    3.33119703335691
C         7.06748584180506   10.69579954830458    2.78333277736947
C         6.36550035729853    9.49046656511685    2.62571369468689
C        10.46495042055222    9.45814224142146    4.01688305348000
H        10.86613914901824   10.46828893271667    4.01815313995533
H        11.09625340673997    8.83177172694058    3.38832218071687
H        10.51184153002782    9.06675192076178    5.03272670476352
C         6.41321712850266   12.01359452820070    2.50810470420938
H         7.10739567629761   12.83428462680929    2.66888597352548
H         5.55344214792176   12.15238996983276    3.16249449841505
H         6.05880691610787   12.05374823121929    1.47894046850758
C         5.00465863285577    9.24662349590193    2.25934879810526
H         4.31256029607805   10.05004631242079    2.01904997269516
C         3.28363790631654    7.72167856858166    1.85619765180813
C         2.76419760042696    8.26474516331611    0.68011443710876
H         3.38568077608447    8.90805991416152    0.07367689549289
C         1.48175391361164    7.94544780092391    0.27566112596844
H         1.09168431275779    8.36177254664832   -0.64162282974571
C         0.70095427711405    7.09323707324843    1.03851338473814
H        -0.30034957914870    6.84586891028258    0.71926801552828
C         1.21139677562951    6.55465481998529    2.20909129523956
H         0.60499314613439    5.88998414792982    2.80627438267799
C         2.49450642654720    6.86106514487808    2.61695257223545
H         2.89553135233959    6.45116754192967    3.52983589652199

