95
CSD_code = CEMMIQ | q = 0 | S = 0 | Stoichiometry = C46H44O2P2Pt | MND = 4
Pt        4.57887549345786    0.41984286008404    0.76143685004317
P         5.61035554530913    0.56754192099226   -1.24263501368810
P         3.33730757430256   -0.16663407611915    2.56540798507422
O         4.13870152560927   -1.41275152907056   -0.18277759823423
O         3.89780564133703   -2.33822404104350    0.89132327399161
C         5.04107288198823    2.20264011517060    1.57438727309749
C         4.20586485912369    3.30310923535216    1.39637057878046
C         4.48273150803069    4.52244891726983    1.98947227537834
C         5.61140799739772    4.67104627866624    2.77634971612287
C         6.45948429257097    3.59334085737516    2.96113689763732
C         6.17424299794679    2.37503052687080    2.36740100906704
C         7.15279251297128   -0.38461129637954   -1.18556713749142
C         8.03183785879961   -0.46784147060488   -2.26032400896517
C         9.18071797456389   -1.23017740869483   -2.14826286109841
C         9.45949902251857   -1.90233735411795   -0.96820340791110
C         8.59445120852262   -1.80608881313485    0.11012413348115
C         7.44529077336409   -1.04531389461279    0.00169272299187
C         4.58017838404800   -0.21609563572653   -2.51389932308985
C         4.93464347401942   -1.35491198450437   -3.22214042134553
C         4.02994489023574   -1.92917646493788   -4.09907356998515
C         2.77293280784180   -1.37444116451050   -4.26994950590345
C         2.41507654261472   -0.23668515985531   -3.56320021055678
C         3.31446349880456    0.33772331204178   -2.68687195262709
C         6.17181316081117    2.10103301550885   -2.05924462788888
C         5.98781695696796    2.35776518101085   -3.41239384147000
C         6.46668002965410    3.53342967833472   -3.96397578755242
C         7.12833526859026    4.45645226964190   -3.17147214815578
C         7.31158769316970    4.20497550231362   -1.82076730372462
C         6.83529327327454    3.03242223581337   -1.26658475896675
C         2.82267310413983    1.24443982684472    3.60281059597069
C         1.61991172513411    1.91212040401401    3.41359847455963
C         1.34010695849418    3.05857483900025    4.13678949069217
C         2.26128934877100    3.55236954712129    5.04370567490247
C         3.46472042078929    2.89218498902495    5.23481184203668
C         3.74418910692926    1.74631066835078    4.51789070500691
C         3.92594303788802   -1.32009189964571    3.83849542822947
C         5.10378489488407   -2.02324107311303    3.62223221412755
C         5.57773600555215   -2.90071087811814    4.58086538689459
C         4.87774631580727   -3.07699834221855    5.76294558988912
C         3.71176899258811   -2.36331849793146    5.99189237501743
C         3.23849772061494   -1.48079176848193    5.03816719717087
C         1.75723659327772   -0.80223627909207    1.94032160136100
C         0.98169642819443   -1.77272224981346    2.55828857616222
C        -0.19614913689088   -2.19165402623252    1.96266367776513
C        -0.60042421963468   -1.65009295379956    0.75313823521820
C         0.17509776430345   -0.68371154430690    0.13141166202151
C         1.34872818999043   -0.26031635223971    0.72424304683363
C         3.68802091030045   -3.63953647634105    0.37451880885775
C         3.36967176911112   -4.49838405617447    1.59981875943920
C         4.96322773974549   -4.13700352614845   -0.32028361326010
C         2.51564337693491   -3.64983132723606   -0.61340153494309
H         3.31280339174351    3.20720198663213    0.78659127476529
H         3.81417765884396    5.35983729050811    1.84129639364756
H         5.82826412177040    5.62126265844579    3.24406676804846
H         7.34516185030329    3.70179161315210    3.57345579636229
H         6.85079486140625    1.54050216189825    2.52850766922374
H         7.81544811756569    0.06649617207336   -3.17591153188842
H         9.86270224595792   -1.30169058760934   -2.98336329408965
H        10.35665187256168   -2.49894821831683   -0.88926211094339
H         8.82022753023304   -2.32430202457145    1.03097897809912
H         6.74417030971602   -0.95177247850386    0.82812479036488
H         5.90842137502114   -1.80139926912079   -3.07855229574070
H         4.30393815903970   -2.82182720498293   -4.64321997120503
H         2.06793657587225   -1.83375617997415   -4.94758689991188
H         1.43155634930543    0.19225617453512   -3.69181139594445
H         3.04878739579774    1.22222728500907   -2.11926808611476
H         5.46717746702810    1.64059721899136   -4.03275290409639
H         6.32198348383115    3.72984419254473   -5.01672533279126
H         7.49773276010844    5.37365815192614   -3.60624990946732
H         7.82163579113653    4.92586125103608   -1.19907245561526
H         6.96005723290920    2.83144800417966   -0.21121183542125
H         0.90086369100049    1.53484119150819    2.69931631719941
H         0.40130758560871    3.57201877720986    3.98579377294109
H         2.04445399657566    4.45301212039651    5.59902727022814
H         4.18836145380698    3.27836831759180    5.93737632593378
H         4.68588573123114    1.23238391096176    4.65535350593152
H         5.62948966372698   -1.88166258840354    2.68913634338903
H         6.49356100073874   -3.44839213234546    4.40982641581141
H         5.24363573156957   -3.76481162258627    6.51132067665710
H         3.17334886065966   -2.49258730613412    6.91982585434913
H         2.34397435978343   -0.90228793061769    5.22778115312123
H         1.30259340710685   -2.21325263770980    3.49155889687740
H        -0.79734277511297   -2.95260431166185    2.44020778493240
H        -1.51552542962672   -1.99003053269797    0.29002439492097
H        -0.13267436027758   -0.27219462086330   -0.81891067731595
H         1.98451681000335    0.47883032200722    0.24211258646153
H         3.20397229666267   -5.52802358194074    1.29514441750609
H         2.47624505827456   -4.12173151804796    2.09154353312375
H         4.19316008030446   -4.46108909040108    2.30910118855250
H         4.81015454667863   -5.12934068081693   -0.73576366096335
H         5.78822772361780   -4.16760132825492    0.38880139955958
H         5.21854872697948   -3.44562897855860   -1.12004099126427
H         2.39494671661343   -4.63816983380137   -1.04889497029448
H         2.71373455021614   -2.92727884843264   -1.40218666816323
H         1.59710932876959   -3.36352593506333   -0.10597194457251

