29
CSD_code = CEMNEO | q = 0 | S = 0 | Stoichiometry = C10H11BrN3O3Re | MND = 6
Re       -2.01452519607949    5.05274363573828    8.62573778093798
Br        0.16529914250783    6.21151959724267    7.75428535136637
N        -1.57830175541056    3.46146132399324    7.07814305166799
N        -0.84080875385368    3.77421991264988    6.00356814223828
H        -0.38308455899724    4.68446995445006    5.95859597561639
N        -0.74826051732495    3.97204732689824    9.78155243967014
C        -3.61703451266972    4.19510891448987    9.30797039140918
O        -4.58630164787639    3.74972809794061    9.73135628739251
C        -3.01856614792808    6.07452086741208    7.30196535245385
O        -3.52901998323423    6.68171121667630    6.47684654149629
C        -2.14723826136363    6.49450398112696    9.93304543460823
O        -2.15257432144898    7.36418043911251   10.67561855265755
C         0.19308071702013    3.49809998868081   10.23829588273727
C         1.36240436247242    2.91992891068310   10.81933206582593
H         1.39816252271318    3.15885482609667   11.88248663634643
H         2.24536330430151    3.33202847245971   10.32875969501793
H         1.34772039221029    1.83740126933660   10.69089170801717
C        -1.94325985030949    2.19020332863160    6.93344898535642
C        -1.41145263204323    1.69123963401555    5.73771079720429
H        -1.53129769435601    0.70060699281945    5.35034201976835
C        -0.70403730306630    2.73318678931451    5.16947249319236
C        -2.79072008976548    1.46371850792571    7.91439371092807
H        -2.66040098996782    0.39116294078070    7.79454179968613
H        -3.84173290113374    1.70400294244725    7.75415382065091
H        -2.53292544749270    1.74563135015892    8.93420908325611
C         0.07189107513933    2.82784313027732    3.90984647252981
H        -0.47220633423553    3.42071656567082    3.17470588424310
H         0.24093339157345    1.83684107553224    3.49882220818761
H         1.03099399061659    3.31101800743469    4.08860143553665

