86
CSD_code = CEMNAL | q = 0 | S = 0 | Stoichiometry = C42H39ClIrN2P | MND = 6
Ir        4.75834599307055    5.54079914672294   11.34450604950239
Cl        5.97113018150115    5.53961793164449   13.48555128661213
P         4.05169072379841    3.30103960817483   11.94383587288459
N         2.90777624905505    6.31927170340481   11.94609449136218
N         6.16309176975125    4.70213764652671   10.05059543051522
C         6.10952426972876    7.83665212004254    9.64165058879912
H         5.43397353734856    7.67443343990282    8.80397064381298
H         7.00365939261703    7.23679701741804    9.48538589139227
H         6.41027083645572    8.88676070048005    9.62865242019984
C         5.43481090619450    7.51948080689359   10.97213353576857
H         4.59151802717829    8.21152624839864   11.08392638819127
H         6.14436611925140    7.75401365616654   11.77247354556627
C         2.48348338938594    6.57203909843365   13.25426436848046
C         3.30148009869667    7.29158549724107   14.12408411263124
H         4.24792452231050    7.66378492886452   13.76747278399295
C         2.89965774893769    7.51022511023807   15.42684821085827
H         3.54136120359521    8.06437078487363   16.09504274569668
C         1.68621270625188    7.01759956079282   15.88004433635014
H         1.37948633960267    7.18511296587537   16.90182931453561
C         0.87074651356197    6.30027080354930   15.02127934653803
H        -0.07060302537561    5.90200832923973   15.37077875666207
C         1.26218050203615    6.07834384998161   13.71546914040167
H         0.64010009128493    5.48659845496946   13.05801983541708
C         2.06039241850211    6.44838213786875   10.96296697367550
H         1.06062231389062    6.83126308873334   11.15571652838677
C         3.79945231128645    5.57929934660134    9.66932752667623
C         2.48619332406387    6.06298557590022    9.65513307320792
C         1.77421203652782    6.05443491726469    8.44568845728932
C         2.40805247607802    5.53821131838494    7.32003247936548
H         1.85828023076362    5.52407702130846    6.38846568338410
C         3.70102862567803    5.02335395532931    7.32347694683337
C         4.41564262738994    5.04702673188453    8.53036907598568
C         0.36987742876614    6.56670485890693    8.37038408943693
H        -0.27893483181187    5.99722625875457    9.03538298046938
H        -0.01844226120709    6.48917899822887    7.35797882486880
H         0.32918477719325    7.61053743111708    8.67968480270003
C         4.30291180498333    4.44810482349537    6.08037365560883
H         5.22924770716284    4.96424831921689    5.83086365622745
H         3.61865759166088    4.53522498182980    5.24024392209318
H         4.53613639748281    3.39431774451689    6.23030100616999
C         5.72692587409417    4.56632952838568    8.82811652497871
H         6.36149317792083    4.11193408549176    8.07131332503316
C         7.40991547659966    4.17637842795843   10.40298671210693
C         7.80324151979594    2.90669496925717    9.97783870597431
H         7.13754788094992    2.31699795201461    9.36313593385962
C         9.01864286848425    2.38490839654633   10.37606897754597
H         9.30568349942873    1.39479706461380   10.05306459026340
C         9.85861887740394    3.12139902212848   11.19411480993593
H        10.80596386014727    2.70831644237708   11.50720573436481
C         9.47517488960732    4.38460501912857   11.61593030954711
H        10.12412142034560    4.96000254098952   12.25865489066931
C         8.25969662947056    4.91246994233346   11.22823453220889
H         7.94839400638285    5.88758843174595   11.56554970568893
C         5.22106873939852    1.94587189586966   12.31782531748697
C         4.85621518221810    0.61465418360415   12.13046269126701
H         3.87868194623134    0.36998357799277   11.73752196044929
C         5.74517262647121   -0.39555410467354   12.44338266171164
H         5.46024005792077   -1.42681227248484   12.28977035744631
C         6.99600713700230   -0.08959544112264   12.95748839510635
H         7.68806191807576   -0.88395608667241   13.19714280226882
C         7.34828123547745    1.23064457278797   13.17495811958855
H         8.31471478700506    1.47478797992888   13.59011480964432
C         6.46377717462141    2.24768586280193   12.86044953116306
H         6.73011246290947    3.27714163311349   13.04951026081950
C         3.13026707030672    2.65573380031957   10.51120044728306
C         1.81730843343684    3.06703219064555   10.29294921741124
H         1.31050939089528    3.64606764872121   11.05341113947440
C         1.16524370834226    2.74326379665256    9.11911028921465
H         0.14367201613027    3.05922220447519    8.96472425801631
C         1.82082110042462    2.02123627127527    8.13557398905867
H         1.31166460652396    1.77150134224073    7.21669411748374
C         3.13359381781966    1.62799016680573    8.33229496704447
H         3.65030585454761    1.06757046693150    7.56582329817402
C         3.78745895801809    1.95162585765775    9.50645699658461
H         4.81503756495935    1.64891858891468    9.65527192747381
C         2.93642322562025    3.03301273030971   13.36488069874377
C         3.26909709571676    3.68835010837668   14.54706328694085
H         4.12976112255925    4.34248938828836   14.56900510318346
C         2.50347461880521    3.50403281278678   15.68301174356110
H         2.76650826286179    4.01940018873569   16.59460057309071
C         1.40196750730188    2.66562433752194   15.64851008538687
H         0.79804057601149    2.52484604837404   16.53321602824610
C         1.07876626637683    1.99800350867226   14.47858539744091
H         0.22717528553807    1.33265536008412   14.45260491861796
C         1.84496952441329    2.17149200965471   13.34007033569517
H         1.58907767088058    1.63611062923983   12.43620074430888

