53
CSD_code = CEMRUI | q = 0 | S = 0 | Stoichiometry = C16H24N6O4P2W | MND = 6
W         0.00124320229971    0.27182677644625    0.88260201218218
P         1.84250689396564    1.16880618811785   -0.45687276185487
N         4.34750387877184    0.57495249657955   -1.49346659828302
N         3.13176005282870    2.35733299914961   -2.60872486005608
N         4.12409881089579    2.74603192634497   -0.42498760425887
O         2.17215625878468   -0.95755400150003    2.75425247027403
C         1.38650069848168   -0.50474215073953    2.05286009435503
O        -0.00084183842943   -2.31305379721329   -0.89267705522006
C        -0.00100419401282   -1.36714924773543   -0.24741916517411
O        -0.00192929249688    2.86974159171042    2.63581587671679
C         0.00233809942602    1.92568109276741    1.98820554204683
C         3.19740538315732   -0.04098320843649   -0.86375201921552
H         3.51448701214706   -0.52816201885120    0.06700635801646
H         2.79443745464890   -0.81379176125198   -1.53069630771502
C         1.81305302914117    1.99076057698928   -2.13551558644174
H         1.35242434431485    1.30585855428486   -2.85865342747960
H         1.19668322711567    2.89653619027750   -2.07825392199198
C         2.94382266182678    2.43116671047881    0.35406832454449
H         2.36924498953664    3.35133237525983    0.52052891937300
H         3.25015104321340    2.04061506429555    1.33304101659539
C         3.99441273208139    1.19584377960356   -2.75826243015260
H         3.49456600062616    0.45826994675325   -3.39206692554921
H         4.91744696844370    1.52118157296796   -3.24840043686002
C         3.77670491582757    3.30957603115766   -1.71816150574726
H         3.11319864716846    4.16600734482183   -1.56918693713205
H         4.69825704678862    3.65185154336198   -2.19942362995805
C         4.95836783283633    1.57291670656524   -0.63046208486029
H         5.18099258645567    1.11898148997121    0.33860437178894
H         5.89336661162797    1.89913251702712   -1.09692066894147
P        -1.84330648143792    1.16780790507028   -0.45718759807003
N        -4.34901542735578    0.57444701085169   -1.49130235093197
N        -3.13180841582548    2.35332916604538   -2.61075442703368
N        -4.12277372726445    2.74759478917949   -0.42734507597442
O        -2.17048084426479   -0.95895529801775    2.75260137097379
C        -1.38506131666560   -0.50143662478503    2.05410018366250
C        -3.19938447816334   -0.04155329660537   -0.86087170059864
H        -3.51642113465159   -0.52639110462001    0.07111670779987
H        -2.79736341278491   -0.81606759451928   -1.52640305825665
C        -1.81323752399867    1.98643591191500   -2.13744860509581
H        -1.35368558552454    1.29947447031423   -2.85932613793371
H        -1.19588350322620    2.89169287656001   -2.08245416146225
C        -2.94247965932284    2.43321577402518    0.35185412386405
H        -2.36686335388506    3.35314171188058    0.51614713385433
H        -3.24870890610670    2.04493321774535    1.33176027463848
C        -3.99573326242957    1.19241013505759   -2.75748315810154
H        -3.49693525857561    0.45301934755226   -3.38999593900010
H        -4.91863686401059    1.51770783222171   -3.24788486940347
C        -3.77538144387031    3.30806565105898   -1.72186026008734
H        -3.11094700746718    4.16414180519085   -1.57497770258781
H        -4.69681072793714    3.65027018958602   -2.20340859538551
C        -4.95830760054729    1.57487284500631   -0.63002923019308
H        -5.18094274931058    1.12316994004205    0.34007823004932
H        -5.89318637285056    1.90110605003355   -1.09670621372486

