65
CSD_code = CEMROC | q = 0 | S = 0 | Stoichiometry = C28H27N3O4P2W | MND = 6
W         7.05450721231842    3.13357802545328    6.83609180141435
P         6.78996315344691    3.13365330201100    4.39098361453089
P         4.63260377802820    3.13350171623608    7.31453623351842
O         7.86417139564313    3.13333753954007    9.84654414475947
O        10.15615828102485    3.13346046416193    6.51049281124917
O         7.04815116588561    0.00479095031387    6.64658159919711
N         6.18107035419974    4.34965300579550    1.97272926109848
N         8.28136682258855    3.13344561111846    2.04123377172203
C         7.49296737549512    3.13290610002987    8.75978681601825
C         9.01133828381009    3.13365153446849    6.58065123639289
C         7.04189529432334    1.14506389759925    6.75941925815384
C         6.03913959569719    4.52635001057056    3.40369570714017
H         6.53258950104639    5.46118388848743    3.69895218435740
H         4.97346400478817    4.60945042405761    3.64415724445792
C         8.41673368122628    3.13368902037367    3.48387615289732
H         8.98451508671097    2.24564419490592    3.78996648005670
C         5.52707343061042    3.13360056118803    1.51753765210982
H         4.49087788820114    3.13371244014720    1.86848707007087
H         5.53670217358804    3.13348797989367    0.42272033958641
C         7.57813886593284    4.31487310557581    1.57173903132407
H         7.61809171617305    4.32292691197189    0.47773608511962
H         8.08158213542571    5.20672828479380    1.95438169553465
C         3.51475542574181    3.13336216105963    5.87621116437654
C         3.13797639071281    4.33505031750572    5.28162091594923
H         3.45522150048150    5.27047945279978    5.72496924853219
C         2.36045036814587    4.33322065528417    4.13665047421174
H         2.06491923169997    5.26952041221122    3.68558787564979
C         1.96608538184136    3.13337076268655    3.56582639734667
H         1.35743197581222    3.13336807863087    2.67375241853317
C         3.95998102310944    1.75579415744475    8.31353872745880
C         2.60332562519881    1.44048610342323    8.32941930445429
H         1.91092661856015    1.97805544603408    7.69746029188029
C         2.13516084187516    0.42397009533985    9.14045573709178
H         1.08225258313037    0.18177413825921    9.14052593575736
C         3.00943060158023   -0.28251318024756    9.95078814438409
H         2.63916296961206   -1.07704352643832   10.58153056734905
C         4.35704586350489    0.03363213887444    9.94883441022409
H         5.04332967212510   -0.51167253268770   10.57956723007085
C         4.82957978726229    1.04882424593539    9.13586910542192
H         5.88318753627363    1.29477462496283    9.13234055389587
O         7.04843203969063    6.26245388908032    6.64700943184647
N         6.18083020111556    1.91751724752065    1.97297160590184
C         7.04277861058864    5.12209910497713    6.76007432526863
C         6.03869289004605    1.74105909651202    3.40395112717442
H         6.53193949954663    0.80623237127491    3.69947656961684
H         4.97298231395077    1.65834775189792    3.64439554878079
H         8.98455445537446    4.02183753236780    3.78968776128490
C         7.57794987327866    1.95196654212581    1.57212236909990
H         7.61798919013311    1.94352412122149    0.47812886308728
H         8.08120812845324    1.06014486890771    1.95509368341673
C         3.13757495942229    1.93167238871042    5.28190879961237
H         3.45451433298695    0.99622169768399    5.72541435649501
C         2.36004709871420    1.93352681212471    4.13693354498732
H         2.06421713741009    0.99722592473951    3.68607079286558
C         3.95977697484223    4.51124526770240    8.31336005206939
C         2.60313837195817    4.82666062529953    8.32908559513880
H         1.91081046314022    4.28925654190272    7.69691164637684
C         2.13492862606414    5.84309021065491    9.14021730748389
H         1.08203214631376    6.08534254166137    9.14021780116552
C         3.00912325200515    6.54940094996085    9.95077123201652
H         2.63880325087815    7.34381987110689   10.58162857594845
C         4.35672889227312    6.23321289882709    9.94893671971242
H         5.04294452740038    6.77837508271474   10.57987359056897
C         4.82930096038984    5.21809838039310    9.13590357894071
H         5.88287721119079    4.97202576085890    9.13250642784388

