58
CSD_code = CEMSAP | q = 0 | S = 0 | Stoichiometry = C29H22O4P2W | MND = 6
W         3.27999004904633    4.43848904112453    2.42415059299647
P         2.73549590723867    2.04020990665621    2.46796180768473
P         5.09643931088569    3.14983449788758    3.47873935435826
O         4.52739234314158    7.29994567912480    2.48137232391849
O         0.71064399801736    5.55119701694444    1.04380950887847
O         2.12664795437159    5.01136088704615    5.28154865148070
O         4.59492336060697    3.71835800553056   -0.33004338829481
C         4.05718721790501    6.25493390549578    2.45658980156977
C         1.66193992144137    5.15616786393375    1.54928706394381
C         2.51439820771544    4.80338968562274    4.22452082837978
C         4.10748967476278    4.01661816026351    0.66340716366687
C         4.44054446942575    1.47919712041407    2.96381534580436
H         4.49700144084867    0.70433240816285    3.73335478666012
H         4.98644552852436    1.16636760446019    2.06557444899748
C         2.36137732517064    1.06884148230685    0.97346513842005
C         1.52531624603868    1.67604001507299    0.04194473167221
H         1.16463435440386    2.67882375407622    0.23637302520077
C         1.17666077450582    1.00935937844765   -1.11761733970832
H         0.53044369232874    1.48454609544377   -1.84058472509317
C         1.66521265086768   -0.26568675724226   -1.35306516215816
H         1.39887494077212   -0.78717688943008   -2.26042194673277
C         2.50141169165105   -0.87183941693207   -0.42950618569648
H         2.88551946504183   -1.86402624110206   -0.61822135663304
C         2.85005778414599   -0.21031582109977    0.73407620462541
H         3.50883025572408   -0.68811589411221    1.44650062844079
C         1.60286380052830    1.24713404131499    3.65675480232033
C         1.73819233731524   -0.07065349736902    4.08099389000557
H         2.54571457518461   -0.68425660487938    3.70611408020349
C         0.83682971317275   -0.59555826507196    4.98822044418104
H         0.94609946793100   -1.61655690217848    5.32426148969467
C        -0.20522609504949    0.18367342447954    5.46668018891076
H        -0.90347106576058   -0.23145839388003    6.17825688871013
C        -0.35326553687692    1.49062542726278    5.03238002646468
H        -1.16757350954678    2.09619449561522    5.40133605065854
C         0.54857639888294    2.02186437331187    4.12830175859490
H         0.45240943597182    3.04421137052324    3.78302990364213
C         6.83701077536405    3.07685276998887    2.96348875306667
C         7.32420533264062    4.09238744621133    2.14998164222075
H         6.66345490896052    4.90286172600251    1.86668598557060
C         8.63762099452465    4.05848833261642    1.71457266334287
H         9.01762707425116    4.84768189418733    1.08290325422350
C         9.46173769867528    3.01026232524547    2.08900520071349
H        10.48651453056568    2.98206262727562    1.74919473238245
C         8.97714710676200    1.99459279849301    2.90037151460393
H         9.62486825976105    1.17973710057453    3.19037402287402
C         7.66752647424572    2.02446703714106    3.33954679842830
H         7.28363517361276    1.24065615541184    3.97986397153809
C         5.20294430680778    2.98270320377457    5.28329809274331
C         6.28379353058617    3.49254786914333    5.99553406868193
H         7.11730657341899    3.93175332591999    5.46401464866580
C         6.28803431716460    3.43455203813304    7.37760063005019
H         7.13096141444888    3.82631931830744    7.92809038627271
C         5.21342479558880    2.88303905497129    8.05570173091047
H         5.22025523764461    2.84040894466525    9.13472805480780
C         4.12335323159019    2.39740079616508    7.35064078972418
H         3.27677346627815    1.98053924752462    7.87661789335859
C         4.11347157534028    2.45407916829005    5.97060818538523
H         3.25190513543261    2.09403586272928    5.42021615466266

