72
CSD_code = CEMSEU | q = 0 | S = 0 | Stoichiometry = C21H36B9ClNP2RhS | MND = 7
Rh        2.48557466458425    2.50534967451916    8.34841013642332
P         1.43062981066725    4.44149757545373    7.68643228468223
P         1.01278309189732    0.72391962726922    7.33977181845023
Cl        3.22893542540050    2.62834177188699    6.06701649321249
N         0.62012457248685    2.79780875436413   11.01489151626817
S         4.20395931696053    0.90867484386153    8.74490105798296
B         4.80042485306637    2.82021977338526   11.04512936284541
B         5.35515782135715    1.32669384105734   10.29453097442653
B         4.63334159594411    2.71078123698407    9.31133330914008
B         3.31431058059357    3.44871504499889   10.28568595184804
B         3.21677746093392    2.49430463333879   11.81684160194781
H         2.87956773472766    3.01604467096492   12.82342603222428
B         4.40316773361951    1.20606052569323   11.75886155295903
B         1.97012325108280    2.38888365688292   10.53304375131337
B         2.70635779662258    0.79874975204274   11.37335551741497
H         2.00530203667671    0.19441974812563   12.11056816064456
B         4.00394739616978    0.10597622051405   10.44557376807252
H         5.57530096683129    3.57006313716430   11.52247254097793
H         6.47025824878606    1.00011914569056   10.11093001616324
H         5.31194627283116    3.28877698775153    8.54055214346529
H         3.16752918180524    4.62705492846883   10.31240278349130
H         4.86437558173398    0.79392842613413   12.76189232868623
H         4.24249426866501   -1.05094596077656   10.39440134254529
H         1.94185862976462    1.11323511933648   10.32339674820933
C         0.41488869556689    4.02925949237309   11.53812923935286
C        -0.77086291402332    4.40439050994981   12.11770813496064
C        -1.83268771144090    3.50738034980171   12.16905659042637
C        -1.63547839158320    2.25201356004950   11.60654825275355
C        -0.42068208361784    1.93476573532634   11.05097809502326
C         0.00986438174414    5.12300177826112    8.62098017691453
C        -1.12231927314625    4.31471355971771    8.68288749113567
C        -2.28312340814172    4.76429916722344    9.27878220258569
C        -2.32092981417393    6.03026010664321    9.84294737659782
C        -1.18933105650962    6.82654205820171    9.82108603382563
C        -0.02824181715727    6.37620803705597    9.21521618908603
C         2.58754295394120    5.85645928363881    7.53958915899452
H         2.08320114079466    6.74703720870197    7.16776109910864
H         3.35272571691328    5.54865504273853    6.82851917806540
H         3.06943997565023    6.05941577560598    8.49210961814604
C         0.64727465507881    4.58441872540659    6.02291603618023
H        -0.23055043210647    3.94940167843589    5.95511462977746
H         1.37170239456804    4.27382238408654    5.27480053264647
H         0.35161958040419    5.61924651556251    5.85230047209858
C        -0.12454280691600   -0.29622505707016    8.34832481725237
C         0.41824717954799   -1.21727375522068    9.24491943670901
C        -0.39319077147994   -1.92402391427917   10.11227215325845
C        -1.76323878133950   -1.71361696324877   10.11042222144521
H        -2.39872249425831   -2.26693001667233   10.78580701100055
C        -2.31171191622010   -0.78729592475945    9.23880947888387
C        -1.49923867555137   -0.07798023100262    8.37241256035762
C         2.04190731426302   -0.60588926082343    6.58879440079690
H         1.40984957538541   -1.36151457970477    6.12467236636000
H         2.68668185537243   -1.07070704514503    7.32977268541990
H         2.67222476665336   -0.13181948831372    5.83879183860455
C        -0.02238387648144    1.06103199790714    5.85418749162240
H        -0.45305165153810    0.13728162499772    5.47018244403006
H         0.63785064088538    1.50042587087677    5.10906350133620
H        -0.81693196570567    1.76942354712749    6.07451516571250
H         1.25590383955006    4.70078241948265   11.49814666648784
H        -0.86295585167134    5.39304274424718   12.53662097685565
H        -2.76935650951816    3.77520150514559   12.62860839618749
H        -2.41918537133412    1.51141979853161   11.60572027268275
H        -0.25407421589676    0.95772448697903   10.62742386480791
H        -1.07570277672489    3.32078462861937    8.25393508522432
H        -3.16008560046277    4.13355909339021    9.30511496087805
H        -3.22919717539004    6.39107364587045   10.30245346665633
H        -1.21318405053804    7.80891842089342   10.27059836808624
H         0.84569602289875    7.00914251889978    9.20162061114792
H         1.48618484378604   -1.38021598047638    9.26549560349819
H         0.04443854533254   -2.63783765495940   10.79433708427664
H        -3.37905219794696   -0.61658221809274    9.23360514142436
H        -1.94287878023950    0.64623568293824    7.70552022771118

