119
CSD_code = CEMTEV | q = 0 | S = 0 | Stoichiometry = C60H50Cl2MoN2P4 | MND = 6
Mo        7.23648883894308    1.55020500091524   14.52370839954560
Cl        6.32578330797026   -0.05773175146023   12.92764521716239
Cl        8.22631660301572    3.00562331846818   16.19628248298945
P         8.04743444329633    2.99274868027998   12.83021715104882
P         5.56135699939761    3.07199336504245   13.76843064416728
P         6.46359648353515    0.05915247479670   16.18618199086616
P         8.87562357570282   -0.03124783233054   15.12219111399780
N         6.54806268427448    3.78433874638607   12.55063446728201
N         7.91836063834178   -0.86829652472263   16.28379668829614
C         8.62320852172471    2.53196108041190   11.17083286700394
C         8.79604368686260    1.18483351438598   10.87661145858450
C         9.20495515522195    0.80143264300055    9.61104923359556
C         9.43478226218973    1.76051306746685    8.63864984619182
C         9.26838069953909    3.10631212764121    8.93170481200284
C         8.87081642195468    3.49664748631541   10.19617995683253
C         9.20655680374338    4.31843794824479   13.26355605340845
C         8.80437456589970    5.26292815734691   14.20353694262795
C         9.70371765228566    6.19874257499452   14.67633470657005
C        11.01579401261279    6.18538490286104   14.23089346739232
C        11.42789118822445    5.23201346724144   13.31409994984227
C        10.53057150844179    4.29512474102577   12.83525159857573
C         6.25450658931500    4.83570940215247   11.64534749682270
C         6.28891993969983    6.16406665690991   12.05963275113990
C         6.00081718989818    7.18062743066029   11.16713126944589
C         5.68178399646877    6.88727738003210    9.85245742490532
C         5.65489298213451    5.56842825341549    9.43204333106863
C         5.93784139070749    4.54758655121124   10.32073153673582
C         4.10072215046172    2.45988194674408   12.88306318693875
C         4.25392663770499    1.82990468111533   11.65271549491862
C         3.16782608314605    1.23614026054366   11.03785207538644
C         1.92674696276837    1.25279058182272   11.65276578960979
C         1.77283790276081    1.86046120110138   12.88866006173618
C         2.85598351437312    2.45596563411223   13.50736311348942
C         4.85356560472042    4.50618531770977   14.63489452251206
C         4.01377494312115    5.39915413992196   13.97244818685628
C         3.54501628867444    6.51826176583235   14.63354896667854
C         3.90173177322901    6.74621216283601   15.95457951655667
C         4.72607927989758    5.85271802031469   16.61815843132782
C         5.20521378770577    4.73276783276394   15.95997109305754
C         5.12845380278110   -1.06787270619828   15.70471299108561
C         3.96547427620848   -0.41805519846321   15.29456448983143
C         2.90315985319308   -1.13793903909937   14.78788758134872
C         3.00120097564001   -2.51640452861150   14.67331428660694
C         4.16085652063768   -3.16442478328591   15.06199244510889
C         5.22880256083134   -2.44678092283861   15.57418736361654
C         6.09380060815661    0.51921240783443   17.90269892172876
C         4.81213303045571    0.46744936823986   18.44110705837836
C         4.58915382220593    0.92666403821894   19.72676963128707
C         5.63451628310393    1.44410751312096   20.47425095365188
C         6.90986982025843    1.50688854172017   19.93490494811029
C         7.14063839007694    1.05191282697994   18.65129680391413
C         8.23791220993465   -1.96710037369562   17.08182539169560
C         7.34805984366017   -2.42279971305917   18.05276311053201
C         7.67222712604086   -3.51107484295242   18.83932580317681
C         8.88245827152692   -4.16359985457697   18.67243682870430
C         9.76985182479613   -3.71530347823994   17.70792033173342
C         9.45483676775330   -2.62679586879688   16.91830129428942
C         9.49713516157026   -1.30565696788957   13.99005757085220
C         8.59699261328638   -2.27760950436499   13.55944838643621
C         8.97675346376597   -3.19193311669701   12.59608386901677
C        10.24914416116874   -3.13667441638219   12.04931356675496
C        11.14379348012817   -2.16628322021467   12.47021993693806
C        10.77199607283995   -1.24792830591987   13.43542197647394
C        10.34512427806087    0.62027903215916   15.95819380846222
C        10.72450682071745    0.35932807164204   17.26842076236842
C        11.79428819189632    1.04517776377828   17.81932502338691
C        12.47895051673978    1.99198514603819   17.07721706414850
C        12.09079526438140    2.26883828270107   15.77490440201530
C        11.02362128045976    1.59124260595172   15.22239562219194
H         7.78595810616738    5.24414328828929   14.57281667432663
H        10.18768354586730   -0.36638856219025   17.86328317908191
H         3.73043638266068    5.20859893956818   12.94539739590199
H         5.23298603042952    1.79204323768680   11.19429361527760
H         3.99688561757110    0.05839608952752   17.85921064240313
H        11.47221037159681   -0.49247436787582   13.76580578592803
H         8.75621413408237    4.54550774752250   10.43734277762625
H         8.13013394358199    1.11488579162672   18.21617260425217
H         8.60220352430078    0.44312087792271   11.64280655317742
H        10.67664254842989    1.82615828085664   14.21932182888689
H        10.85391126064597    3.54365720842999   12.12591104697506
H         7.59831404449983   -2.30325524226788   13.97494275701273
H         2.89881656615668    7.21506418093174   14.11923246723504
H         0.80592729761692    1.86763760532462   13.37246422627311
H         6.13346990463002   -2.96361508755904   15.86221572205058
H         9.74869372406073    1.46175411404640    7.64887196213148
H         2.74126007984481    2.92492666854334   14.47700006308801
H         6.97150840389595   -3.84990801506771   19.58824419262506
H         3.29111407654661    0.74872834522837   10.08159729440196
H         1.07926287397425    0.78508354526861   11.17261009024844
H         6.02910771155687    8.20699215362321   11.50262606325340
H         6.54122346190528    6.39880223993722   13.08217656519551
H         8.27634028868872   -3.94453996619759   12.26489172149597
H        10.15034452657711   -2.27624012717374   16.16732375125635
H        12.60409325019665    3.02706878766226   15.20136283766937
H        10.54387277388794   -3.84962258113286   11.29301432676224
H        12.13556756278400   -2.12233964939221   12.04327634249245
H         9.38630346205306    6.93118469223314   15.40434178071171
H         3.59449495347186    0.88081518425034   20.14676431902234
H        12.08607157873508    0.84428362732258   18.84020979617944
H         9.45345172177788    3.85246078459139    8.17225459326693
H         9.34123809090936   -0.24628430776351    9.38576844275642
H         6.40131155841616   -1.91687324782211   18.18316340211510
H         7.72407913880102    1.91711776510058   20.51420757995576
H         5.45379750423843    1.80168378949431   21.47749922709422
H        10.71674607848186   -4.21555811305931   17.56706083905326
H         2.00960715501856   -0.62524517258169   14.46251245247532
H         3.53158725118190    7.62240629294414   16.46712083144999
H         5.85759413097377    4.02954344251132   16.46504451027242
H         9.13209454768571   -5.01381094740751   19.28861148819928
H         4.24175897884053   -4.23692421537274   14.95725899449757
H         2.17716410823830   -3.08351361000830   14.26562952193620
H         5.92427400291329    3.52078754133645    9.98848226396337
H        13.30558714100085    2.52892072941474   17.51900868252122
H         3.92323184724439    0.66588688654595   15.35639324142687
H         4.99881741002790    6.02792717365211   17.64860264863154
H        11.72094918471805    6.91314992393774   14.60567415418474
H        12.45406820243891    5.21577572170001   12.97417570537676
H         5.45800836510304    7.68314063884307    9.15769932791874
H         5.41197121270133    5.33063475234724    8.40678818904347

