65
CSD_code = CEMVIA | q = 1 | S = 0 | Stoichiometry = C24H32IrN8(1+) | MND = 6
Ir        4.76121496242512   11.47720791927481    0.16642836913500
N         1.95463488167434   10.35355930218031    0.45789748991937
N         2.21268308710406   11.89973561335637    1.92066027866317
N         2.91608592021309   12.44020049086135    4.12142583412239
N         3.97602574183993   11.70802798544102    4.47437150339519
N         5.59785812837565    9.06779755270739    1.96455448534124
N         6.23362094935254   10.94279083118756    2.78133420358148
N         7.92864376555630   12.57041738598633    3.09420734761751
N         8.70782111022793   12.53484428236628    2.01042747916149
C         4.20749181142537   13.31611272275579   -0.81441439851174
H         3.36677955742988   13.77458221436085   -0.29280254389323
C         3.91653878642828   12.28027497092366   -1.69100931817480
H         2.86928868878732   12.00281862499580   -1.78247110976524
C         4.75075879529231   11.94235566925895   -2.90555434656068
H         4.09772985074104   11.55217571058592   -3.68778236649422
H         5.20239829084497   12.85485532980523   -3.29375874993337
C         5.83645672001496   10.89234178444202   -2.60539905980065
H         6.66901512350282   11.01140283128274   -3.30504080351102
H         5.42491494903413    9.89410497042261   -2.77345987508413
C         6.37246190849351   10.95585031763558   -1.19649649815150
H         6.81874898479101   10.01903361709530   -0.86546025129571
C         6.75854495812462   12.10747351042922   -0.53832629923724
H         7.47675405198540   12.00606315597965    0.27050863190353
C         6.73253212293809   13.48219797626195   -1.16236172425185
H         7.54876702399574   14.06934474025876   -0.74002746077019
H         6.91724539254230   13.39754720243637   -2.23289917657492
C         5.40882444265924   14.22340033483869   -0.90268072068411
H         5.23641838920043   14.96283821899394   -1.69094250975343
H         5.48752466108137   14.77793969968358    0.03573250851353
C         2.86950767001415   11.22121233467949    0.94456604615630
C         0.76130272101759   10.47745016531360    1.11905838152608
H        -0.09239102705517    9.87766508597945    0.88083407570988
C         0.92078689116769   11.44961447393104    2.04179243243024
H         0.23459093137764   11.85035299627033    2.75783252400679
C         2.15592662764652    9.42490049468785   -0.62143860180263
H         3.14023644034839    9.59529170451287   -1.05311109008170
H         1.39630584862813    9.57479020504773   -1.38949459838671
H         2.08501372964148    8.39779402813006   -0.26052566286036
C         2.78047140376898   12.91437392592068    2.77505168437937
H         3.77231058271890   13.15721012692291    2.38134358981901
H         2.13694793835080   13.80137604707338    2.77333947429801
C         2.02609558712316   12.54354597123940    5.13705291195129
H         1.11866673306224   13.10407303259748    5.04022897836760
C         2.54982275425263   11.85264119623800    6.19988621932604
H         2.12708726232550   11.72842959728434    7.17425460108656
C         3.77120600813012   11.35051613324712    5.72512170550737
H         4.49549364458191   10.75515623003235    6.24380994664689
C         5.58043407390158   10.39626039584671    1.72992454590383
C         6.24006760993483    8.79068426122915    3.14198194644452
H         6.36239283301909    7.79234338833523    3.50740404958373
C         6.63904303073387    9.97348753912063    3.65777894903779
H         7.17674607404036   10.19646730428090    4.55503493604344
C         5.03955724214262    8.05404584321628    1.11321657394756
H         4.10906759481779    7.66895648329936    1.53494210410850
H         5.74251470992696    7.22747176742644    1.00983319011378
H         4.84322709431217    8.48348658288148    0.13373783717840
C         6.52043739020773   12.34602659125307    2.97472409658403
H         6.14382167480529   12.87867410768714    2.09445166218224
H         6.01651952187029   12.68973745533220    3.88447824840443
C         8.65562424912353   12.76195294962048    4.22035477252391
H         8.19388454066659   12.82483991843818    5.18498528987374
C         9.96754055181362   12.86664445076017    3.83381525357404
H        10.82347276135634   13.03056757525862    4.45380133537264
C         9.93837944635833   12.71508374829109    2.43808150321419
H        10.75550479778973   12.73388092281751    1.74579016890865

