92
CSD_code = CEMWIC | q = 0 | S = 0 | Stoichiometry = C39H44Cl4FeN4 | MND = 5
Fe        7.65627180584064   12.22067835693092   12.72432259797119
N         7.13669178995775   10.32884633551189   12.74957008185558
H         6.20342869987059    9.95500732165708   12.87598993371136
N         8.17960276513341   13.98103214909977   12.03587959463743
H         9.11343204881088   14.37385447421677   12.01780960995028
N         7.50264042398802   11.71975786441075   15.67743087077762
N         7.81494292479679   13.79915567064907   15.26747536121027
Cl        9.66206581555036   11.42430401238711   12.52966989440395
Cl        5.65367514994698   12.88272220293265   12.22421647044091
Cl        6.12264697802009    7.44499801161386   12.54492957947726
Cl        9.20442959440011   16.57350298721837   10.76461706222524
C         7.65378520779899   12.59837985299166   14.65092961898143
C         7.77193423632626   13.66531623476132   16.63271755434067
H         7.90996063341798   14.49901791545467   17.29026411031670
C         7.56223527585233   12.35960018017897   16.89013033148581
H         7.43298628955660   11.83701009647255   17.81555263675093
C         7.26954739124094   10.31658942406334   15.65078193240280
C         8.33555682167716    9.44653087519958   15.89336366049936
C         8.05627628089966    8.08953281709668   15.99645132683832
H         8.85695541252290    7.39107147625678   16.17733491802828
C         6.76295104155345    7.62093836535477   15.87958745356922
H         6.56405492994284    6.56353139771955   15.97012033999010
C         5.72068097758279    8.49722916718827   15.64065384865094
H         4.71797438003073    8.11287692289087   15.54772542666985
C         5.95488161400402    9.85800362238128   15.51534083010059
C         4.82908943705053   10.83524560419760   15.26253161078905
H         5.24726155653856   11.69334516018277   14.72637574069348
C         4.24967151427923   11.32442059221092   16.59465715702495
H         3.87901846184205   10.48232474458508   17.17570439776737
H         3.42454786477192   12.00917886415658   16.41228407444460
H         5.00141752496987   11.84466968643836   17.18309062313148
C         3.71041851355755   10.24923442303180   14.40049830003525
H         4.11164581819724    9.73877866053816   13.52896467465967
H         3.05874194637546   11.04914720047638   14.05618168704801
H         3.10607296406818    9.54330335702880   14.96505426013074
C         9.74778945436217    9.95990606685540   16.07120256269169
H         9.83291809029371   10.91701476085931   15.54515981448935
C        10.05863540545022   10.18394466455566   17.55662358064284
H         9.44864607111887   10.97486422329204   17.98222056990079
H        11.10342202675451   10.46301675645658   17.67463900115583
H         9.88005737804769    9.26909639391396   18.11806016791313
C        10.79561019365767    9.00536279820490   15.49520928463955
H        10.95082792470018    8.15450082351492   16.15416344084937
H        11.74572637125555    9.52500932165930   15.39370375638859
H        10.49558633261313    8.64002287377771   14.51835100879227
C         8.03893854330689   15.08900025626752   14.71066095342182
C         9.35210814617485   15.47489201458426   14.42245984168107
C         9.57680418452707   16.78470929382785   14.02693544195414
H        10.57815426580092   17.11535244263376   13.80370331589859
C         8.52648035464372   17.67576649522271   13.90916290387873
H         8.71785280167127   18.69132040181069   13.59626745028832
C         7.23413010544740   17.27256266410761   14.18080136176826
H         6.42756697913479   17.97963831929053   14.07586529180847
C         6.96407609839379   15.97425860389131   14.59461532878752
C         5.55295523013647   15.54529208862983   14.93318414109740
H         5.47775859552409   14.46465071159520   14.76988961799823
C         5.23183547223380   15.84387547696858   16.40320610693811
H         5.83393646020296   15.24296845844044   17.07776561709487
H         4.18463443837182   15.62582656410098   16.60097677647180
H         5.41241459467591   16.89482892883859   16.61972766576416
C         4.50350412805983   16.23379149297361   14.05849941883462
H         4.33512301012172   17.25683984852527   14.38631044016589
H         3.55870606098976   15.70039122756909   14.13477473959547
H         4.80952380437380   16.24579678150099   13.01730964919407
C        10.48596403590479   14.48412294680817   14.56122191747482
H        10.07527641248761   13.48264760981705   14.39605377030098
C        11.07053236183024   14.54708637991305   15.97674367238718
H        11.43162926987553   15.55103994118589   16.19069440603202
H        11.90340145235464   13.85328184373587   16.06615276558916
H        10.32471757041961   14.28291377965962   16.72235172433829
C        11.59929888290894   14.70403475574563   13.53631909762303
H        11.19354355666606   14.83804997762531   12.53707842780726
H        12.25812901383343   13.83867077431088   13.52279513549493
H        12.19720286405446   15.57756580002714   13.78465940874679
C         8.03024802049881    9.36915245651846   12.52020316632012
C         7.76610021505101    7.98442865152920   12.38902175051674
C         8.75528036324091    7.07117918707582   12.11035709361804
H         8.49940213759002    6.02748207404935   12.00992197245931
C        10.07264656950455    7.48404095894848   11.95043004500660
H        10.84071678272973    6.76340014261947   11.72471613052564
C        10.39131846148981    8.82911262632381   12.07691663866460
H        11.40665414382008    9.17238250175342   11.95409597760744
C         9.38831332483856    9.72539478286909   12.36020466079975
C         7.29036628328857   14.78490033436652   11.45684898910037
C         7.55970926089933   16.01844674522126   10.81650831803598
C         6.57439344254872   16.76256075999682   10.21193935313890
H         6.83397836794082   17.69216164949239    9.72889330023077
C         5.25620662888693   16.32216788954303   10.21294209828586
H         4.49120152861895   16.90756091127741    9.73092482651846
C         4.93293783246364   15.12241941388780   10.83172507367683
H         3.91710784101517   14.75941129301211   10.84105370978698
C         5.93210676282496   14.39584703130332   11.43446974881400

