93
CSD_code = CEMWUO | q = 0 | S = 0 | Stoichiometry = C34H48Cl4FeN6 | MND = 4
Fe       -2.33981413790341    1.99086766858455    3.54418812824614
Cl       -4.50959058505907    6.40263835219711    2.28840711531817
Cl       -3.41475007815004    1.18602273074100    1.76550331951526
Cl       -4.32886993093134    1.88330772316046    4.54231546489776
Cl       -2.19878984510206   -3.02392817323468    4.28353005749192
N        -3.05053583623757    3.78605477293708    2.82345357519047
H        -2.99758659961696    4.68657610980847    3.28021216161920
N        -2.25016701677188    0.01593200304145    4.10535073559188
H        -1.54168663912360   -0.65360317357715    3.83808531398455
N        -1.65442165336073    2.67942175186665    6.46071817536877
N        -0.82022876270914    4.11558611380207    5.08581452105043
N         0.56486375883772    1.22434851561840    3.15936785619654
N        -0.16749960607295    2.19417414484451    1.37838663970310
C        -1.50329500243146    2.93964665660604    5.13365781302534
C        -0.53204601941362    1.84110272247748    2.64055359482381
C        -1.10835216020683    3.68881652605883    7.22491948967988
C        -0.57726810168591    4.59223630669105    6.35891852288190
C        -1.10798551289952    3.76238351222007    8.71265193723394
H        -1.02498213057935    4.80080410062660    9.02412044440981
H        -0.26398932859113    3.21466608469069    9.13363333779273
H        -2.02590437649320    3.36299780782172    9.12912677991128
C         0.09248604539029    5.87617183535447    6.71266734123935
H         0.44699961767847    5.82621328445306    7.73919274161755
H        -0.60408694564967    6.71109730220820    6.63321679233628
H         0.94637576425527    6.08450490231567    6.07627752283989
C        -2.24864622004295    1.45631104324286    6.97098430054798
H        -2.43214849117299    0.86039014422180    6.07812635193307
C        -3.58078698403641    1.69541869262482    7.68810738827015
H        -3.44214647000658    1.92493800103217    8.74196416262953
H        -4.18976063034955    0.79767745164252    7.62110860158797
H        -4.12497308769665    2.51177657717693    7.22173431425276
C        -1.28403693617969    0.65943787684994    7.84967129764862
H        -0.31049294390294    0.58415494263949    7.37416165356987
H        -1.68146494884434   -0.34411767254090    7.97758964149705
H        -1.16177881387620    1.10151297992986    8.83374094039985
C        -0.40189502272798    4.76499963031924    3.85770099512045
H        -0.88334212025727    4.17464563383379    3.07596681948909
C        -0.89869774787856    6.21138139986080    3.76725533776137
H        -1.86113144122667    6.32031027913923    4.26008056302504
H        -1.02599493010303    6.48643030456162    2.72352987111052
H        -0.19951874369296    6.91099131702907    4.21666199203505
C         1.11208989499304    4.68600680123031    3.64137870625808
H         1.67297726542779    5.07461444258365    4.48683523175559
H         1.37840759541254    5.27335298707974    2.76596704074991
H         1.41831830586758    3.65950226455384    3.47087434596582
C         1.58554460526076    1.17894567597160    2.23061254105312
C         1.12251615722432    1.79021880301551    1.10764189086574
C         2.94463518744649    0.60098021813621    2.43006564282022
H         3.29225840819806    0.15918912150010    1.49776920892792
H         2.95132542939576   -0.17123265431224    3.18877749234089
H         3.65854163967709    1.37716221677884    2.71254112723263
C         1.86776427181520    2.00966900181866   -0.16158250542599
H         2.68374026420247    1.29365323745763   -0.22887583031987
H         2.30095115031053    3.00969338057089   -0.19301241324522
H         1.23046701232750    1.87729834083904   -1.02972586326783
C         0.64407282737009    0.70994392605076    4.51354603442461
H        -0.34925492755801    0.91182918707873    4.91785891076120
C         1.66822691208736    1.47248940982413    5.35656554242648
H         2.65589280077490    1.46117927338265    4.90518188068512
H         1.74105399779642    1.00939051815917    6.33759903085764
H         1.35686420769312    2.50398933198660    5.48977384516227
C         0.90160133329357   -0.80430677971468    4.55613018386618
H         0.63923141245846   -1.27014336539740    3.60958650971127
H         0.29369910168044   -1.26039405580941    5.33274273236840
H         1.94176888828277   -1.03471606851435    4.77728328493379
C        -1.02636062203886    2.94647667169380    0.48139342613392
H        -1.88571115648272    3.20680565714192    1.09675673509830
C        -0.39470261310218    4.26005703738847    0.01914607404087
H         0.08024750319967    4.76741792361481    0.85388098834281
H        -1.17975732820423    4.90338833315181   -0.36985088130651
H         0.33876364092030    4.11169038021031   -0.76755312377939
C        -1.50599772024595    2.11182033868046   -0.70832502491560
H        -0.76960861290988    2.07816325730914   -1.50757729007706
H        -2.41572912116232    2.55095909588642   -1.10922592242368
H        -1.72611802017029    1.09505852463783   -0.39567636302219
C        -4.03125601497404    3.75716270127824    1.92560971808593
C        -4.80889277853317    4.86861480959738    1.51486930379960
C        -5.77723348755490    4.78440649760161    0.54273954464502
H        -6.33963414152323    5.66667132641211    0.27596962087988
C        -6.02997055584590    3.57617322406396   -0.09243525062254
H        -6.78904104219209    3.51304141407629   -0.85418822641466
C        -5.30278198041168    2.45013211050892    0.26982514186820
H        -5.48785598435936    1.49775305446315   -0.20238107932064
C        -4.34539132621042    2.55355787911362    1.24792741638771
C        -3.38005320989678   -0.58786074375664    4.46241269682779
C        -4.53346046122854    0.17690355802958    4.76497684991072
C        -5.72167660816314   -0.36099161054068    5.19258897749640
H        -6.55969907632967    0.28549027918953    5.40255844113277
C        -5.83151152790880   -1.73730821996436    5.34025893601737
H        -6.75765049174825   -2.17800987539952    5.66961478797598
C        -4.73881728852606   -2.54319990315626    5.05108849132567
H        -4.81141917417178   -3.61533905381412    5.15624723521779
C        -3.55543392684713   -1.98424806462045    4.63016059294877

