71
CSD_code = CEMYEA | q = 0 | S = 0 | Stoichiometry = C22H43BNiO2P2 | MND = 5
Ni       -2.36856838532487    7.88575481253700    3.48193951529803
P        -3.40340199771646    5.97293854693604    3.23053906442589
P        -1.68133785629896    9.95065893822915    3.21055683716955
O        -4.22044840614845    6.09352501546034    1.81878679302427
O        -2.40892472180498   10.48099077962738    1.84502688085504
C        -3.36041925690414    8.30555716435585    1.89444685624092
C        -4.12799476806277    7.34355733685715    1.24008953707706
C        -4.77335644402772    7.59965355972212    0.04016381059545
H        -5.36406206039999    6.82505751133475   -0.42389112256786
C        -4.63718460744407    8.84780434840486   -0.54299874722648
H        -5.13552518168718    9.05948023590325   -1.47644882476788
C        -3.85320424629294    9.82093127154153    0.05266403079465
H        -3.71982510737321   10.79006762924627   -0.40261892963531
C        -3.22104626848774    9.53515375131672    1.25301479732755
C        -2.33233379458316    4.48160899137587    2.81984653179288
C        -3.12632645216919    3.31585587025966    2.24129217656883
H        -2.44573800423061    2.61350560151358    1.76079573554863
H        -3.83900238272084    3.66451994953020    1.49742093407580
H        -3.66157022126675    2.77969479562015    3.02036811963716
C        -1.52600089304911    4.04737903736969    4.03842734653182
H        -0.74024107242112    3.35633047862258    3.73493835893881
H        -2.15084924139018    3.54483575279647    4.77111164674982
H        -1.06406046925213    4.90882439847281    4.51658710077268
C        -1.37533885252655    5.03443387286013    1.75921857942519
H        -0.62421293229164    4.29263103229696    1.49195365121590
H        -0.86011405882625    5.91699772617590    2.14994108479551
H        -1.91424628450865    5.31808821974702    0.85602411897042
C        -4.86610590136502    5.58709381008590    4.35481220487546
C        -4.40791906014787    5.05577485517211    5.70685094100444
H        -5.23814332181602    5.08188290633265    6.41188716211880
H        -3.59950429253127    5.66409493035140    6.10293239610288
H        -4.07016141415013    4.02506141778864    5.62919943879809
C        -5.87481983456983    4.63470657789683    3.71752699689706
H        -6.79803090548830    4.65540578817446    4.29589319169420
H        -5.51074198211149    3.61175142109230    3.70728705494325
H        -6.10712359330149    4.93249619419278    2.69806046826203
C        -5.51511359631240    6.96393825738440    4.53242255964408
H        -6.35116827489430    6.90902002998225    5.22823417135062
H        -5.88736261908220    7.34281643638786    3.58027203699927
H        -4.78388137622702    7.67237227692281    4.92650564143764
C         0.11863774003491   10.09389643186559    2.67452314441804
C         0.22411090610055    9.05986035537693    1.54901247762659
H         1.26174765517902    8.91762244069265    1.25079956961177
H        -0.34514929578382    9.37281035962036    0.67495927121014
H        -0.16976357633243    8.09630097543773    1.88996723059796
C         0.47984968961652   11.47511476123376    2.14076723731103
H         1.42176568388412   11.42072689855890    1.59532375681147
H         0.60593907887736   12.18850010841547    2.95115816390405
H        -0.28782597069983   11.83911688897576    1.46134356475450
C         1.04624164687127    9.68646099146742    3.81361638925970
H         2.06589020119083    9.58625067037262    3.44277877989246
H         0.73487527059462    8.73238742794595    4.23463332048899
H         1.04739683579409   10.42424603241969    4.61061992361898
C        -2.25089636193155   11.33710462546007    4.35124984865324
C        -3.68806953818251   10.92437668277351    4.68479698040800
H        -4.14875649516193   11.64408806072942    5.35997398285520
H        -3.69072079283407    9.94733558386009    5.16793105811681
H        -4.29381280154903   10.86845129183713    3.77975067355274
C        -2.26954136705165   12.70327138572185    3.66910799653454
H        -2.81960297916343   13.40419845040155    4.29633968471457
H        -2.76533727228641   12.65313022998393    2.70313089645136
H        -1.26831259165629   13.09781180626803    3.52690904919292
C        -1.42013330214055   11.38749951249172    5.62689520790772
H        -1.91531818420040   12.02032606505285    6.36262606121097
H        -0.43453370321946   11.80664649048584    5.43677412125777
H        -1.30837431767111   10.39204171909436    6.04860307084632
B        -1.64026898509132    7.59569744624089    5.85811060543528
H        -1.55524112845508    6.49439669582416    6.29453298199638
H        -0.77576935512102    8.30148358361336    6.26336114238516
H        -2.73961767992144    8.07144279806986    5.97213565052653
H        -1.37239887048479    7.45535169983499    4.48978801069387

