59
CSD_code = CEMYAW | q = 0 | S = 0 | Stoichiometry = C18H35BNiO2P2 | MND = 5
Ni        5.37626466874965    2.64620643792171    4.43180089118123
P         6.49567819668616    4.42984190922916    4.87011972573768
P         4.71189362282286    0.78747304153698    3.57633868943057
O         7.66235772655385    4.55373196888617    3.72825996935601
O         5.66426281994637    0.49226172085442    2.27778413996603
C         6.60879807292171    2.56305917917717    2.96588544128490
C         7.60652511988328    3.52383776230164    2.80525510110744
C         8.53208335282532    3.45183711880231    1.77616623627391
H         9.28580468904814    4.21786189913440    1.68031490691416
C         8.47363810436688    2.38577589230220    0.89367179801357
H         9.18904605025556    2.32160234492979    0.08822681813323
C         7.51968078722073    1.39234617681326    1.04129731535528
H         7.48206799299512    0.54785301374214    0.37085081242298
C         6.60506131919032    1.48765098313101    2.07827559255596
C         5.72881330364042    6.11304190109935    4.73062154242396
H         4.94279578827673    6.16223834346700    5.48905810131609
C         6.74709427090477    7.22836006465923    4.93493641431884
H         6.29389515138559    8.18785859926079    4.68992898023302
H         7.60348018578622    7.07885898569491    4.27992070281747
H         7.09634944168168    7.27375046406466    5.96350078159466
C         5.08962351253548    6.20026926282694    3.34722990085221
H         4.52076847400651    7.12226112118350    3.24232493346171
H         4.41548500679377    5.35768931062913    3.19318653980910
H         5.85588255707011    6.17664825403173    2.57327858566156
C         7.54005260614838    4.46655243046862    6.39934062613632
H         8.29159788434137    5.25405945959443    6.27493659418795
C         6.67762143681184    4.72400108891385    7.62645456198382
H         7.27188410347644    4.62874077665520    8.53414371051493
H         5.86489707155232    4.00022421232152    7.66629191416127
H         6.24349429899283    5.72085716154747    7.60415091604731
C         8.23614958066596    3.11181851277915    6.48761720396205
H         8.86175319706275    3.04968251959349    7.37661212581888
H         8.86216573006142    2.94189903581680    5.61211928152074
H         7.48714240618475    2.31805381663458    6.53516337325811
C         4.98951280579618   -0.77128950996194    4.53791395686559
H         4.94201070107648   -1.61278288916064    3.83783074723828
C         6.39498440677834   -0.67907941402199    5.12428564944742
H         6.62671753899363   -1.55583932956151    5.72690932547499
H         6.46915184399854    0.20700694077180    5.75910971142783
H         7.13900629991078   -0.59770280147277    4.33241415765716
C         3.94308605221451   -0.91357964868506    5.63358497506144
H         4.17345114998350   -1.76745082277395    6.26920194653917
H         2.94879559203833   -1.05526894319913    5.21641397555307
H         3.92815074668064   -0.01605991062089    6.25017026614205
C         3.03953993202122    0.61685678289912    2.79253791891165
H         2.30507142213359    0.75902307030654    3.58993273999341
C         2.90034462527008    1.75237901146560    1.78207110346205
H         1.89460787663596    1.77825394468461    1.36672507568925
H         3.60877096586002    1.62173102826611    0.96491544136708
H         3.10058145796375    2.70881754256693    2.26485878886198
C         2.85291729543503   -0.73908802151092    2.12226227798410
H         1.92989080152537   -0.73845176231149    1.54421428762712
H         2.79410183953181   -1.54495150272199    2.84966861935275
H         3.67993771070775   -0.93878277179540    1.44335627880490
B         3.26895340662661    3.27744737715580    5.55545487625973
H         3.30462263371855    4.13806668772955    6.36518165870246
H         2.46877861543931    2.43109210645517    5.75814988163634
H         4.59022326994712    2.56780371057991    5.73059517832115
H         3.30578247888445    3.66824435489301    4.40607693379512

