27
CSD_code = CENCOS | q = 1 | S = 0 | Stoichiometry = C4H16Cl2CoN4(1+) | MND = 6
Co        1.77366302694371    3.48699694528728    0.70775412918342
Cl        2.77082402084823    2.56302502588062    2.45615638823635
Cl        0.77574017713589    4.41069545125767   -1.04047403122344
N         0.53718300937854    4.41065129139227    1.91739941214074
N         2.89412188835051    5.08446873782752    0.89707380064946
N         0.65322193606726    1.88857933412200    0.51803978994610
N         3.01008352764432    2.56382053518104   -0.50211273624838
C         0.90610400001564    5.83468199571836    1.99835945092508
C         2.42534342693757    5.87577614826801    2.04793724597302
C         1.12465925280298    1.09626481588958   -0.63114059051395
C         2.64369778343711    1.13900798469215   -0.57869409958668
H        -0.45164021290416    4.34211934122533    1.67429252688805
H         0.55041972361953    6.33435902805146    1.09419374646892
H         0.46378918157255    6.31856552542598    2.87336080734407
H         2.79955489281282    6.90248477175704    2.01286691218318
H         2.78013058702521    5.39591246977682    2.96310582650586
H         2.76231212105047    5.63864099884945    0.04578544523879
H         3.89429664397965    4.91171529058112    1.00416735069206
H         0.78406129162388    1.33568776030192    1.37027845443750
H        -0.34686114821363    2.06062539546433    0.40911618778259
H         0.75123682633207    0.06936265901778   -0.59606208853623
H         0.77133069589799    1.57510729728253   -1.54721028475835
H         2.99785584365970    0.64342625554299    0.32823275543951
H         3.08883142936198    0.65227324073781   -1.45060751043964
H         3.99966946808176    2.63513876534409   -0.26308112139967
H         2.88134779051456    2.98299346689929   -1.42781807114167
H         0.66142281602397    3.98901946822540    2.84258030381339

