117
CSD_code = CENLUD | q = 0 | S = 0 | Stoichiometry = C45H66ClNO3Ti | MND = 5
Ti       10.22614722989675   13.52530657662393    4.40514853885574
Cl        9.44406319777315   15.55788263873997    4.83756284494458
O         8.92007049708904   12.62115327303223    5.05847813723867
N        11.06773532106275   11.34067398495451    3.93992812413151
O        11.67595882616036   13.62678969624196    5.32058624435618
O        10.33593878235901   13.66877023938986    2.69714310405037
C        11.17706045082349   13.30276154525807    1.73632433968305
C        12.63758765570573   13.13659305608059    7.47189195266052
C         8.23279786168320   11.52896097748210    4.74318241611663
C        10.76749145027602   10.98460977388686    2.54332975475570
H         9.67551809773664   11.01979750878903    2.41778414046626
H        11.10507085615794    9.95359494589044    2.33889339597477
C        10.43077301921622   10.36628918910096    4.84123794456523
H        10.66288888205400   10.66581379372633    5.87361230603719
H        10.85707475264500    9.36260190089003    4.66918686712781
C         8.93903222748341   10.31973493775658    4.65246694565892
C        12.89331130832001   11.64740512259020    5.56939236752639
C        12.24131765625986   11.47371710431857    0.55476164443826
H        12.39176567118843   10.40959403931274    0.46420831574161
C        13.68923036611552   10.80274961300166    6.32569021983207
H        14.05964167553838    9.90350799172935    5.85947106184236
C        12.52507847654524   11.32052838620888    4.14789732151631
H        12.96865571754621   12.06523572064063    3.47108684894954
H        12.92784844955902   10.32811753459200    3.88024313124166
C         6.28172802563301   13.63430521143665    5.75977954082321
H         5.95287487450662   13.02432206299752    6.59963097538574
H         5.69290826186854   14.54886394303644    5.74185611735351
H         7.32457691068135   13.90966720088794    5.91281589506093
C        11.69272023922159   15.72248593464561    1.15912240092765
C        11.41798838661369   11.93026443630914    1.57091423408536
C         6.90601683208533    9.11092757457622    4.19068473671513
C         6.84543925827826   11.54168291369711    4.48974820550231
C         8.27829149894571    9.13298206393322    4.38052715619478
H         8.86324285105072    8.22854281228600    4.32556901248889
C         6.09413324050794   12.86711286638798    4.44317786428383
C        13.44701634512455   12.26608507892157    8.18299221175870
H        13.65817142473126   12.49048316156733    9.21409451825486
C        12.63931053205150   13.72114296647167   -0.10882199929843
H        13.13622886871757   14.41510105650909   -0.76427116897488
C        12.38685549145701   12.83609153434910    6.11687208342064
C        10.21234564896883   16.12941099846183    1.14546371703366
H        10.12383963946273   17.20644048714803    1.27044011479247
H         9.66249830063831   15.65139473265557    1.95536418942333
H         9.75504298339066   15.84965260350075    0.19773635507130
C        12.84763752044432   12.35976005970518   -0.32098976974986
C        14.00301567289256   11.10951380325253    7.63987737050391
C        13.73413409845409   11.91230234997502   -1.47367905358519
C        11.83406320888004   14.22740317601973    0.89811868794156
C        11.97354653938699   14.34772615653807    8.11656426374839
C         7.01709914578653    6.58854699062586    3.92680684401176
H         6.40735338117539    5.70474663458464    3.75037440020150
H         7.51391601543258    6.46801244099592    4.88659613230833
H         7.76599711026607    6.64087185040646    3.13998659429279
C         6.22906728289819   10.32818816025978    4.23258173476262
H         5.16834306879950   10.32136237810618    4.05112119579648
C        12.32183102633933   15.62489856890247    7.33893602943312
H        13.40224183023597   15.74994158162384    7.28746587309036
H        11.89440424012076   16.49084393408577    7.83982682444740
H        11.92334711522926   15.59287959672844    6.32553413315087
C         6.65321000259979   13.68738784387691    3.26756670313241
H         7.73111437191445   13.85432728873728    3.37234388693591
H         6.16390054882391   14.65846277167548    3.22636160585865
H         6.47337960253346   13.16574083542770    2.32752728768233
C         4.58856371767163   12.68583332316733    4.21815996280776
H         4.38376228610271   12.20366709014976    3.26489355518427
H         4.11075368064249   13.66304754125213    4.20505201377659
H         4.14007928849407   12.10313102546038    5.01972116887551
C         6.12498462896468    7.83303101368760    3.92286925887541
C        12.31256502452705   16.02430385356488    2.53468626608343
H        13.37639788722191   15.78703089192208    2.52660950450375
H        11.83178373184133   15.44055267547801    3.32769135411281
H        12.19262802810785   17.07935871808230    2.77257613432430
C        14.10176450912691    9.73114808182038    9.71482408833630
H        13.23722141172954    9.16011260801135    9.38281744238249
H        13.74984534308424   10.55487951803428   10.32919224739378
H        14.72453796238685    9.08768343962765   10.33275974007544
C        12.42185848604352   16.57645230219228    0.11541445854975
H        12.02718768948715   16.39723643966843   -0.88223365355243
H        13.49206781005668   16.38206296940907    0.11914807441421
H        12.27494077891791   17.62824883128717    0.35111588372124
C        14.90006312521024   10.23682769575889    8.50503799255938
C        12.40628958704445   14.55414175799993    9.57271127526010
H        12.12841183655228   13.70607475693773   10.19458296100287
H        11.90699798322664   15.43496671702629    9.97054987387602
H        13.47965744546299   14.71560519485931    9.64331100808118
C        10.45229005280831   14.11730439379096    8.10302710311063
H        10.07918764010086   13.96455320791488    7.08412703725987
H         9.94203508264829   14.98181928650268    8.52299621673765
H        10.20078507072132   13.24000815103446    8.69903801605924
C         5.44763460168044    7.93103218320790    2.54874322429737
H         6.19405638762810    8.08052397405061    1.77140826277612
H         4.74659042240683    8.75984372981044    2.51109058205280
H         4.90261864439960    7.01443893186251    2.33298899606959
C        13.83667661184342   10.38802742256615   -1.57730319725530
H        12.85715458058935    9.94103229669177   -1.72996090808868
H        14.28845985472412    9.96396309834745   -0.68359934185131
H        14.46326842547229   10.12359394623132   -2.42670697770923
C        16.09743318442694   11.06954357374529    8.98401042015558
H        16.76477666242729   10.45615389092523    9.58583602320641
H        15.77700549679582   11.91461033518309    9.58634695280117
H        16.65360584666169   11.45126576920775    8.13055966949061
C        15.44108998212296    9.02038603907650    7.74860178627336
H        14.63254643984734    8.37040257643679    7.42236025403397
H        16.08964693740356    8.44400263064422    8.40524895341722
H        16.02499209010447    9.32710706103735    6.88399931525692
C         5.06081016672251    7.65838479320435    5.01534043221441
H         4.35682924762585    8.48544571381321    5.01874850840696
H         5.53324209228933    7.60953145622766    5.99403362137149
H         4.50387391005437    6.73784694850833    4.85341093334724
C        15.14855257246683   12.47411899471954   -1.27272881988086
H        15.80096700676816   12.14508173637907   -2.07884688123507
H        15.56158459972068   12.12412817681353   -0.32897884582819
H        15.14484865423874   13.56025266609410   -1.26044953813602
C        13.14799689741916   12.43950292916957   -2.79086502854171
H        13.75498340075732   12.10859197777593   -3.63101809028752
H        13.11372001180956   13.52498654544240   -2.80328907296447
H        12.13558535802122   12.06535350667387   -2.92668508922129

