87
CSD_code = CENMUF | q = -1 | S = 0 | Stoichiometry = C42H26CoN6O12(1-) | MND = 6
C        -2.31410099143395    8.65345585549570   12.90342610595193
C        -2.57450876213022    7.51527196964754   13.80132661787214
C        -3.69813000689936    7.54938573930610   14.62719015273665
H        -4.35294713093149    8.40613344939142   14.58238471939046
C        -3.94934663826438    6.48743811405961   15.47405761962331
H        -4.82518228278209    6.49737004505216   16.10627099956457
C        -3.07757650530091    5.41577244469254   15.53804683537806
H        -3.27858360988998    4.59113000967609   16.20305022812324
C        -1.92991735996075    5.38473689235209   14.73997983754011
C        -1.71083638845976    6.42758010286223   13.84126811537837
H        -0.86521014557652    6.39005513082564   13.17322635800646
C        -1.39912177986564    3.08666761810079   14.91057056357051
C        -0.22157393799298    2.18565110410110   15.11669693958077
C        -0.23269573941036    0.79900605557547   15.10155890510470
H        -1.16925331716647    0.28409022865561   14.95709913551223
C         0.96902173034620    0.12525029023403   15.26644449611981
H         0.99349919597397   -0.95434357948288   15.24987186084896
C         2.13903979133669    0.84735040360210   15.45307976082325
H         3.09796234826180    0.37125691031483   15.58323133807775
C         2.06514306412827    2.23190172166702   15.48003751078248
C         3.20051605209228    3.17837516978382   15.71664795597176
C         3.62739552161492    5.49134166861314   15.95921275853467
C         4.77395381474521    5.59737211962195   15.16595062349732
H         5.01212106630473    4.80320358336531   14.47656762799678
C         5.59769555022091    6.70369890028215   15.26568895988879
H         6.47361780834409    6.77137086549070   14.63714796139744
C         5.29851436585610    7.72703795195537   16.14397156750698
H         5.91517862071912    8.60974141872953   16.21721021240659
C         4.17581250870052    7.61838048667432   16.96457370974434
C         3.36093031077082    6.49549111140872   16.88858831890709
H         2.51665997606487    6.40043804988224   17.55260772516658
C         3.86359750699888    8.71593948136692   17.89592218672411
C        -3.15562063517909    2.16151134835398   19.53467527195830
C        -1.76252797671581    2.40641756735390   19.11844076440093
C        -0.78891202275132    1.46873207591072   19.46200610718211
H        -1.08084256686033    0.59655755277194   20.02675540439502
C         0.52251354489354    1.67962660365046   19.08208632044522
H         1.28790684425599    0.96910208760033   19.35970826832524
C         0.86662097643711    2.80027359921679   18.34879610265521
H         1.89451325269052    2.97107935778629   18.06537741420970
C        -0.10625307344115    3.72872833503716   17.96662783959201
C        -1.42234163121763    3.53376867639704   18.38149310851156
H        -2.17373065712934    4.26400314793886   18.13168276625864
C        -0.16188343760728    6.04326446465653   17.47056491132751
C         0.28810015253526    7.00365087549082   16.41181523978186
C         0.22040951250293    8.38759827757215   16.46353077843301
H        -0.23723210564920    8.85818398813074   17.31880362981572
C         0.75861837000221    9.11541910080401   15.41169922273797
H         0.73224952317410   10.19516184965209   15.42972160355907
C         1.33086252909000    8.45019409536234   14.33667984055697
H         1.76443880669592    8.97072392210277   13.49796963497947
C         1.33069994833232    7.06361045229338   14.34220769427790
C         1.82654218391434    6.16210783553924   13.25267919766585
C         1.88399200611260    3.86561861596398   12.67957748115620
C         0.95930304101260    2.90117951905625   12.26792896115133
H        -0.07535125382626    3.00969094081155   12.55742680364368
C         1.35880485174722    1.82419699283911   11.49823028480101
H         0.63028392233627    1.08476812601065   11.19779646064484
C         2.67852815522563    1.69328815362326   11.11110934994789
H         3.01362254207146    0.85616198702421   10.51799797531332
C         3.60354373176238    2.66789601644489   11.48490054454646
C         3.20753996088318    3.75192294313367   12.25808212114086
H         3.92103640862051    4.51132815154555   12.53097384850713
C         5.00659157382321    2.50792885297536   11.06096710856474
N        -0.98525316678519    4.36499500134259   14.85215273319219
N         0.90722439533618    2.85702407286834   15.30771335883518
N         2.72943806236543    4.43437939215833   15.81320501775851
N         0.24391749015264    4.80179839549329   17.14772371582781
N         0.82518830249385    6.38857843734245   15.36623614693068
N         1.48072460790690    4.89228258509765   13.53269268958872
O        -2.53822124435664    2.66111178767378   14.75725800565470
O         4.35737262151257    2.79988990401386   15.86031298972363
O        -0.74374309700618    6.39691489830557   18.48817236559618
O         2.39122541367618    6.57753325902926   12.24882627314232
O        -1.15483628662298    8.54959485495896   12.23192535079997
O        -3.03694420169989    9.61393862565366   12.76504211981226
O         2.70997018109841    8.53921307715167   18.56195046167385
O         4.54198249642314    9.70362841994501   18.06456499752581
O        -4.02317140732289    3.08245688731682   19.08571212387482
O        -3.52451884286511    1.22876875920254   20.21146553348723
O         5.82766584693024    3.45468022481292   11.54269457058321
O         5.42116264911607    1.61866849901346   10.35280084137164
Co        0.86693383519991    4.62309406437840   15.33639151674343
H        -1.03624221626587    9.32013227640874   11.65616934172919
H         2.55618076361013    9.28553167170884   19.16080262277412
H        -4.91772915339940    2.85758774847501   19.38324872036100
H         6.73197183633747    3.28495033127874   11.23811873481125

