87
CSD_code = CENMIT | q = -1 | S = 0 | Stoichiometry = C42H26CoN6O12(1-) | MND = 6
C        -4.11153726127229   -0.45121568732864   16.19411056726611
C        -3.09146705606101   -1.47608287976845   15.90205679815705
C        -2.75403681077193   -1.71994559584026   14.57574093479631
H        -3.23121706218639   -1.14935226169967   13.79350188734097
C        -1.79412649674402   -2.67860374291898   14.26277096233146
C        -1.21901696278080   -3.42235328241958   15.29438162622255
H        -0.48926905015305   -4.18066299209246   15.05570529247986
C        -1.56332938518477   -3.18049065788342   16.61167557852853
H        -1.10119734951563   -3.75938192684032   17.39813179530045
C        -2.48276962867078   -2.19818489002369   16.92669440265404
H        -2.74828342703639   -1.99650006565899   17.95282549405068
C        -1.74583359080885   -3.93379473868128   12.25721686356136
C        -1.16246509266611   -3.87941446078442   10.87949857440175
C        -1.32035034386021   -4.83180169571563    9.88481865834206
H        -1.92221868981062   -5.70352313469010   10.08771461814756
C        -0.68913203917812   -4.63113547967118    8.66441626145526
H        -0.79632430129593   -5.35543318850352    7.87071155318405
C         0.09712656575841   -3.50409311697135    8.48219749729120
H         0.62641883682543   -3.30845302620899    7.56334952580910
C         0.22254821235860   -2.60721245480803    9.53379550635803
C         1.07308921062699   -1.37988121032545    9.55217405867917
C         1.63757915551849    0.41758717149360   10.96480555158587
C         2.37822693745492    0.73103754805094   12.10732397298451
H         2.61623219407173   -0.05129913496166   12.81272420301168
C         2.81044681442269    2.02457754065057   12.33638432510242
H         3.37283314502285    2.24514684739797   13.23303549880629
C         2.52568709617967    3.03488635634847   11.43672656050338
H         2.84116116581103    4.04954446431530   11.62207431457622
C         1.83680371428472    2.72475918534800   10.26563119107980
C         1.41156432689278    1.42597805156866   10.02512338355668
H         0.88533282102592    1.21099177863486    9.10938240229301
C         1.49560788592491    3.76315596828090    9.27209577940740
C        -1.83555488796656    3.00479891664931    8.21920368660941
C        -2.12570158190426    1.65725545682577    8.74845689112869
C        -2.78684830201923    0.69890271240583    7.98209886057309
H        -3.11862568977751    0.94342179587616    6.98538640402878
C        -3.02250806068825   -0.55041283777944    8.52472922469337
H        -3.56209453434134   -1.29240677054400    7.95285997319354
C        -2.57058865960690   -0.86779638755277    9.79281874106684
H        -2.77209695679957   -1.84352777968748   10.20961510284257
C        -1.85901692244003    0.06545925723204   10.55052813800366
C        -1.68013849573540    1.34721082594264   10.02565419436040
H        -1.17621468283582    2.10698554579675   10.60081636376166
C        -1.31817962455832    0.61982965065791   12.77291711088804
C        -0.42590660323474    0.17643603271418   13.88410594918210
C        -0.31717800608763    0.76938353444308   15.13386511142020
H        -0.91140063040595    1.64307124705423   15.34905246080171
C         0.54001810403589    0.20142726405265   16.06367426222385
H         0.64323038507939    0.63509779321478   17.04735847196692
C         1.24780123044665   -0.94410774042081   15.72625478892865
H         1.90526568126277   -1.44335473342772   16.42054095327908
C         1.09014339823705   -1.47241539666603   14.45433431433576
C         1.70548247598354   -2.73679897149427   13.94406624766980
C         1.66508202878978   -4.14773657343256   12.05262340154577
C         1.24866273770406   -5.38302075739943   12.55354625336564
H         0.69531632332030   -5.41773871343967   13.47906677978514
C         1.52127618826404   -6.55030476285119   11.86386466376631
H         1.18356559653971   -7.49584032666333   12.26218879528851
C         2.19968011489944   -6.50842259534161   10.66133095957294
H         2.39974908045563   -7.40451258262526   10.09382346787450
C         2.64685633245309   -5.28424167173876   10.16636028196531
C         2.39663807544438   -4.11081879960918   10.86808739462207
H         2.75546047315689   -3.16738787529997   10.48827482529799
C         3.35246092876771   -5.25197082863926    8.87111118342777
N        -1.37479067936225   -2.84308922174101   12.93692809668489
N        -0.42248561849341   -2.79389586734707   10.67586638644981
N         1.09505948797929   -0.85382216489809   10.79398996374961
N        -1.29520564383572   -0.28676939133380   11.77478866325441
N         0.28973289918554   -0.89232577434411   13.56525527198487
N         1.30186401548738   -2.95457136763332   12.68545374244863
O        -2.46484366424699   -4.84603013786819   12.64897533392887
O         1.68305822277409   -0.99250283275280    8.56407133983338
O        -1.98011992935540    1.64673282682412   12.83733906607183
O         2.46808823698840   -3.42732291394316   14.61186901270940
O        -4.04667380084053    0.01634404301460   17.46105140994921
H        -4.73456555064387    0.68918785080330   17.58039335620547
O        -4.94387189133346   -0.04640988806414   15.42376147849337
O         1.54141614401522    5.01007247438407    9.77576734501120
H         1.19913845240846    5.62829766878034    9.11277508632599
O         1.20038823874110    3.56253134752046    8.11936650340165
O        -1.94647557210676    3.08298195926555    6.87998261402100
H        -1.64279852426648    3.95685674463946    6.59179655998880
O        -1.52654195745188    3.96736386987826    8.87850693135031
O         3.86825262594419   -4.05181077655021    8.57736451770405
H         4.27928103660348   -4.06588792536420    7.69989977976850
O         3.46419460549901   -6.19415425616572    8.11945075953194
Co       -0.06422018430975   -1.74808948365574   12.05713588439985

