63
CSD_code = CENPAN | q = 1 | S = 0 | Stoichiometry = C16H38Cl2N6Ta(1+) | MND = 7
Ta        8.58032327290331    4.50043711111902   14.14675124677304
Cl        7.78432810942764    6.61572061336238   13.61828576693864
Cl       10.28164576325582    4.59566626201461   12.61038442903297
N         8.94302088095206    6.20376660289608   16.57512338075782
H         8.39747243838701    6.87112178604479   16.02676744898570
H         9.29410518377662    6.70500711024568   17.39487889630163
N        10.02463040320551    5.75635496009705   15.75223751232695
C        10.89646700090210    4.85912406942983   16.51808905845954
H        11.54560089174077    4.35928891905551   15.79478079088925
H        10.25560770018834    4.11059231898014   16.98845775479612
C        11.74634715003191    5.57819550460039   17.56898556450127
H        11.10922347723662    5.98989870961576   18.35488010580771
H        12.40642489100874    4.84864194279572   18.03754368998622
C        12.56180943078746    6.69350250181995   16.92188234531194
H        13.27980678380968    6.26212032526516   16.22198149707540
H        13.11995965298838    7.24141206394540   17.68105705478295
C        11.62606118561729    7.63560791558291   16.17150761910265
H        12.19556949039366    8.40167156350548   15.64570406958761
H        10.96604272216293    8.14774122555935   16.87698604130287
C        10.80894779039507    6.84601591310988   15.15050994637398
H        10.12172576727515    7.50683670713958   14.61485908902199
H        11.48085544131144    6.38945053429933   14.41847952895448
N         9.04720913314319    2.92325236082913   14.87416486846506
N         9.57171607020194    1.82864341008400   15.28640256203744
C         9.17049438863787    1.12059007908334   16.48695943808720
H         8.32119626734169    1.64050005654912   16.92961722565349
H        10.00194452731362    1.12859917927695   17.20303057041540
C         8.82277651067107   -0.32846879305950   16.14185141946062
H         7.95749752276855   -0.34736594469660   15.47660253822895
H         8.56226080682046   -0.86756617854274   17.05248930363659
C        10.01259477819254   -0.99266866507235   15.45305593272808
H        10.85633325818233   -1.03140253840819   16.14423978696700
H         9.76008020318254   -2.01636544226764   15.17696770808546
C        10.40786038536683   -0.19851063715492   14.21008366423680
H         9.59308266624870   -0.22388977520541   13.48463265577368
H        11.28787657626493   -0.64002565620093   13.74338019084908
C        10.70896968627271    1.25133959743709   14.59008560068343
H        11.58706858499637    1.28082289912975   15.24591398839276
H        10.89758016071348    1.86880978712622   13.70989383241796
N         6.14677006814497    4.15460444851511   14.94366919760889
C         5.97814149695711    2.94128901239525   15.74275805199285
H         6.48767857666603    3.07893807407032   16.69367929812588
H         6.42708800038202    2.09105664230637   15.23784006666581
H         4.91949700975731    2.73604281144527   15.93639648437323
C         5.69784646532561    5.29445602315278   15.74598930736984
H         5.81051006276493    6.21425500151665   15.17628684662161
H         6.31386468758785    5.36432314269987   16.64155290072692
H         4.64748507652293    5.18628629723084   16.03689210052396
C         5.35323319261323    4.08998678699075   13.71006764237661
H         4.30879362571886    3.83496582433107   13.93899676274651
H         5.36502834462287    5.08436732508387   13.25852134892192
C         5.89606303583869    3.07085293128497   12.70812984251879
H         5.19397786221681    3.00292262407509   11.86630858063677
H         5.94486503001208    2.08915389045712   13.18184257445119
N         7.23888577785557    3.41573158615955   12.22338688909809
C         7.16449790928886    4.39040579357973   11.13530514221503
H         8.17264105553458    4.66670061933047   10.82831228457323
H         6.64844543702323    5.28997198116189   11.46350296241328
H         6.63396280207343    3.97841103579328   10.27018478005530
C         7.92700161225031    2.21606487912725   11.74655240324454
H         7.36901242155235    1.73174976193765   10.93836001501514
H         8.05216979174415    1.51920856899551   12.57301695978512
H         8.91442370344931    2.49068653892120   11.37954343469900

