48
CSD_code = CENREU | q = 0 | S = 0 | Stoichiometry = C17H27NbOSi2 | MND = 12
H         2.31288567683285   -0.47363316521069    2.72921132374295
Nb        2.60206090645127    0.83181409363167    3.70038640264799
O         4.16746598053738   -0.85828387808928    5.84970060535765
Si        1.63215794325147    1.56947201928378    7.37334007681985
Si        3.55900901339905    1.34922794839796    0.03762978508610
C         1.12933865312130    1.38103007394512    5.56487970632272
C         1.03743673731340    2.41596778966235    4.60442771294110
H         1.29537015914824    3.45325950560685    4.78673417771884
C         0.33030926427336    1.94471304830849    3.47709038186211
H        -0.00238989147384    2.54347683447528    2.63813820298609
C        -0.03192365149325    0.61178476630561    3.72347511623533
H        -0.64644423054732   -0.01197561313939    3.08735139141778
C         0.48215735771756    0.24596790153078    4.98819378006299
H         0.25763755020276   -0.67702187287543    5.50983997755681
C         1.56980613566505   -0.13496599027574    8.22359866370853
H         2.20284892817046   -0.85481247655400    7.71373126994296
H         0.56000037703343   -0.53338353685109    8.24135440562103
H         1.91055569174627   -0.06494434587244    9.25152027721156
C         0.38360249291576    2.76045312268549    8.20003408258535
H         0.61141783616679    2.88378116248737    9.25383456849987
H        -0.63211486731664    2.38477439725278    8.12407789822706
H         0.40275802838025    3.74522804257430    7.74310037548267
C         3.38504362532729    2.31713405886471    7.51495811897947
H         4.11467905123249    1.71552768229346    6.98017914083782
H         3.69915151586582    2.36830062301368    8.55299242061706
H         3.42539526964959    3.32755631968169    7.11770762719884
C         3.90627692296804    1.74988537928156    1.84814520656238
C         4.85944639711539    1.10530689008139    2.69015671705464
H         5.54179895885978    0.32339505919306    2.37666863968300
C         4.95234552286732    1.83340893219809    3.90550831652938
H         5.68031282373526    1.66264601866387    4.68820475614471
C         4.20269282476839   -0.40791847461385   -0.32640237570812
H         5.28791460397398   -0.44101096201792   -0.33166830443333
H         3.86187148024452   -0.75848953209641   -1.29512484197345
H         3.85013794139806   -1.10701029890535    0.42786541779946
C         4.04719571046681    2.90132457396885    3.83568673688589
H         3.95121670322953    3.69126533724266    4.56894168056612
C         3.40041643155441    2.84632301233127    2.58677950326330
H         2.74459590197400    3.61239505055995    2.18658000562110
C         1.67144905730093    1.44109972521374   -0.25043915685245
H         1.14761164659825    0.79634453857718    0.45250598997643
H         1.40814735241052    1.12183841968460   -1.25395611733067
H         1.29540531536461    2.45309689276477   -0.12551040506764
C         4.44899708338654    2.64302923154013   -1.05475294684686
H         4.09575435751518    3.65033480370427   -0.85607401748347
H         4.27813449242184    2.43627533812890   -2.10598472209805
H         5.52148839850439    2.63289144677150   -0.88677683029751
C         3.57417451977041   -0.29987989340108    5.02065925833671

