36
CSD_code = CENXOI | q = 0 | S = 0 | Stoichiometry = C8H19N5NiO2S | MND = 6
Ni        0.61992391928926    2.72465027049420    7.36326556554326
S        -0.91737678567690    6.85804921618330    7.58101220840154
O        -0.48450811493128    2.97578740825529    5.35850666440417
O        -1.46315947143450    2.03173988173794    6.96971887202287
N        -1.50122156495464    2.43452062605487    5.80212605380075
N        -0.10312638534452    4.25133665574501    7.93760405681295
N         1.18490816683079    0.96572146958990    6.71819610135795
N         1.71513753621197    2.45173733062563    9.34677160892498
N         2.41638861744848    3.89966689339815    6.62970382760066
H         3.15455256512801    3.30909649272010    6.25289726296959
H         1.98974678574311    4.39534780192360    5.84792456493080
C        -0.46356393009213    5.34758561862250    7.68775605030857
C         2.30718229117646    0.19530908270864    7.24613088444702
H         3.24011978438788    0.70445310336976    6.98731163271472
H         2.33308927745470   -0.80560161148532    6.78918579034703
C         2.20901281669942    0.04580456803635    8.76288258935518
H         1.19104939527762   -0.24177461923094    9.02966135520672
H         2.87433521599593   -0.75988452885203    9.07949584744594
C         2.62436251517053    1.31363626423975    9.50842897984072
H         2.72453573753849    1.07512186980574   10.58062990418116
H         3.61369176040220    1.59580307484488    9.14422454140196
C         0.55626825728503    2.25829412589067   10.22843527154645
H         0.01216884938363    1.35988333908320    9.94353880559150
H        -0.12305245173907    3.10364022022821   10.13492179487649
H         0.87205342282488    2.16480935798140   11.27805590750640
C         2.40429328445933    3.68454885738324    9.76630716839163
C         3.50649924983685    4.19732468295848    8.83389328712630
C         2.99865483331547    4.86994178741889    7.55890256987206
H         1.28725433897426    1.07900789198743    5.70759048879373
H         0.32600264216896    0.42814729957117    6.86598630317004
H         1.64913627198269    4.46808608878362    9.84715815160500
H         2.84177418992689    3.52441508652291   10.76641862643362
H         4.07674584100034    4.94037332773741    9.39482288702454
H         4.19880351313184    3.39844357098950    8.56079319211686
H         2.22734063581342    5.59780053534150    7.81508261351527
H         3.83737698931444    5.40907695933856    7.09145857041202

