34
CSD_code = CENYAX | q = 0 | S = 0 | Stoichiometry = C13H15Br2N3Pd | MND = 4
Pd        3.91091103952900    2.94388974805570    2.01627037768525
Br        5.46301734231596    1.87872782809822    0.45883983091071
Br        2.34889812878902    4.11884920761813    3.49554839961823
N         5.70082305867925    4.98198163585707    2.90807127151058
N         6.32206916775237    6.16326474000880    2.63169098279851
N         2.82366477771748    1.31397289471895    2.17216604327471
C         4.94561025287578    4.58651051765129    1.86611060859781
C         5.11661137943055    5.56769587508554    0.87699613193636
H         4.66092638096929    5.56757148511416   -0.09516662232692
C         5.97569537792460    6.52271158284565    1.37612931276973
C         6.49996868641616    7.75785275828002    0.74611973592011
H         6.30658238198668    8.62534434003252    1.37605142120558
H         6.02086283467348    7.90682632759047   -0.21671158506331
H         7.57635734902165    7.68287962761231    0.58836152862951
C         7.29527444418973    6.77697664228706    3.48582509058921
H         8.15941379568282    7.08663443331136    2.89624435258267
H         7.62044552187624    6.05851510266173    4.23715973516136
H         6.88139796318265    7.65448982357748    3.98997620968848
C         5.70901909065397    4.33689027761716    4.16413174408194
C         5.41450783394750    5.03790659285931    5.32685455414730
H         5.20931557063671    6.09644659705934    5.28640863631950
C         5.32125828900220    4.35601565389325    6.52747060819538
H         5.07610445291748    4.89829798879407    7.42730931528426
C         5.50868324545461    2.98534570032615    6.56924020687082
H         5.41538929000435    2.45737425936954    7.50573845392200
C         5.80722441708324    2.28799283073120    5.40917237587895
H         5.96057022806315    1.21984516962961    5.44157090623114
C         5.91177031702737    2.95448330293987    4.19892312380837
H         6.20951617750059    2.41662389092258    3.29853748272976
C         1.96280452051836    0.55516436254389    2.20076366146099
C         0.90497617776270   -0.40530375321391    2.24681605529862
H         0.73689716235943   -0.71151255033895    3.27939611253349
H         1.17136007628779   -1.27493391974325    1.64598930712033
H        -0.00712673222933    0.04336902620374    1.85279463062071

