80
CSD_code = CENYOL | q = 0 | S = 0 | Stoichiometry = C26H43F5NOP2SiV | MND = 5
V         3.62675546850845   12.34153198231661   14.06553391436248
P         4.82237903769909   11.35441745329728   15.81075484350279
P         3.28244850026120   13.78739262815122   12.25984328979943
Si        3.19495038307423    9.43877724873715   12.13006898916655
F         3.33491836371553   14.51203238825496   15.54530464397970
F         3.73788321998556   16.76865007050129   17.02608119775716
F         6.19957849188905   17.99664562401525   17.04625029050334
F         8.23664802839921   16.92284252436422   15.56603681606216
F         7.84298392336764   14.67441764616838   14.09203152067476
O         5.38019911614854   13.47093011264940   14.08045517342351
N         2.14430993890827   11.98342621111431   14.51937292187181
C         0.89283289113456   11.85270574909000   15.12123236753970
C         0.93951944709132   12.44212297093578   16.54883704722204
C        -0.17208577830770   12.62578186923859   14.31551053834478
C         0.46750565323455   10.37314037392084   15.21282200863923
C        -0.42612297300413   12.31282626953681   17.21846506289167
C        -1.46443991937126   13.08429578503104   16.40496690568342
C        -1.53447766591758   12.50288024964511   14.99366590526769
C        -1.93671654882542   11.03022497530738   15.06680522364719
C        -0.89941093231552   10.26104832302375   15.88391564425189
C        -0.82877899664741   10.84094827417895   17.29591308790992
C         5.57275106405809   14.51650687179952   14.76460847201801
C         4.56175056971223   15.12247081456865   15.55468355641724
C         4.75292855717148   16.26191540238760   16.30674521786729
C         5.99724685481914   16.88380854794492   16.31790402425993
C         7.03101662039789   16.33454772001308   15.56230668421878
C         6.82267706407578   15.19313631406420   14.81474311146311
C         3.98019754939647   10.94013181869592   12.91945728700748
C         3.08400587559645    7.94646569423156   13.33539801823666
C         1.41996625033248    9.83405674141839   11.51622469073626
C         4.21193640420100    8.83975975031950   10.61198910198247
C         5.24868009909295   12.31115352316427   17.33040283178844
C         4.20856909923980    9.80733132824714   16.58398415575830
C         6.49189086560466   10.80137465213355   15.29795792730397
C         1.87028545239972   13.55523739497650   11.11122094761695
C         3.15473126144937   15.60840571484963   12.52926832946147
C         4.66384028402238   13.73558808937926   11.05709309211370
H         1.23215837468278   13.49147293918784   16.48505854323924
H         1.70459622750735   11.90802979437284   17.11941732832541
H        -0.21216829463370   12.21453669097717   13.30460763804002
H         0.13779219597706   13.67240971196057   14.24970293756917
H         1.22345034160878    9.83078712064924   15.78352167697367
H         0.44099874958265    9.95282571690998   14.20788280891375
H        -0.37316590012576   12.73079628278574   18.23045847601416
H        -2.44277543648902   13.01247763699732   16.88544206531828
H        -1.18914239893728   14.13992875516130   16.35913608685228
H        -2.27903431780930   13.05524596824537   14.40853077199131
H        -2.92066395664512   10.93712352198777   15.53196761910001
H        -1.99884722963964   10.61186013682241   14.06016503402564
H        -1.18895453444129    9.20530171511868   15.93757085566518
H        -1.80038508567585   10.74732991557761   17.78637525676150
H        -0.09903634587055   10.28559898341599   17.88944529234112
H         5.01192117086556   11.08902751057412   12.58033738160619
H         2.45418629346614    8.18672216695257   14.18552138935903
H         4.06293530283992    7.65951166118399   13.70869946709557
H         2.65788359856738    7.07830433197530   12.84129236525573
H         1.40430789425940   10.09625610307219   10.46235231667880
H         1.02606334862266   10.67270484914978   12.08167352423347
H         0.75190471162700    8.98877099145996   11.64821550161320
H         5.21421522084049    8.53879926368612   10.90183724687888
H         4.31017827624611    9.62170687599851    9.86422211643416
H         3.74289258844894    7.98703965274755   10.13099640526100
H         4.33905694065723   12.72783541844885   17.76377752360060
H         5.92539207047037   13.12844632954476   17.08121276548722
H         5.73169235613996   11.66055665496436   18.06073080150472
H         3.94746722070046    9.11330588754693   15.78810701347012
H         3.31534619024503   10.02404993956121   17.16653029098665
H         4.96760345402270    9.36724616044966   17.23206435287806
H         7.02553610470524   11.62733808969293   14.83044931861727
H         6.38014747259418    9.99877111784999   14.56914520749258
H         7.05867724622588   10.44333446961319   16.15882764119969
H         0.93992027353816   13.74838554772001   11.64112188324958
H         1.87229566955757   12.52178672942615   10.77267383501689
H         1.95163284805518   14.22784820064598   10.25645542629229
H         4.08088986755917   15.99107358240910   12.95813050346857
H         2.33623592707160   15.81373876919460   13.21962124641328
H         2.96510432797910   16.11740850910051   11.58332399731152
H         4.53393990312822   14.50276058589755   10.29214986125779
H         4.67958772726116   12.75005121007225   10.59224010486757
H         5.60891008465654   13.89436539321066   11.57375328055037

