30
CSD_code = CENYOJ | q = 0 | S = 0 | Stoichiometry = C6H15N5NiO2S | MND = 6
Ni        5.12674748073337    1.03940692388551    6.93347667843869
S         5.23286870774991   -3.38361225052032    7.07638596639034
O         6.98147568757271    0.49894492581975    8.07984489452941
O         7.18147873089253    0.70695994484921    5.98985117456888
N         4.75189220233533   -0.69202011420403    6.76754756085667
N         7.70764518178076    0.46021483667026    7.08177916790008
N         3.91062737094052    1.27499808184456    8.79399565021644
N         5.34351687246432    3.04411111595395    7.05295420623747
N         4.22409074505461    1.51148165074611    4.96144603853528
C         5.05571299091267   -1.82199759090289    6.93585798179303
C         4.18314500159903    2.64678553391766    9.21374065220600
C         4.28744987843320    3.52183206446736    7.96208787346179
C         5.15627128238876    3.61853709137858    5.70852594983995
C         4.01635550024953    2.95312259758740    4.93391618855005
C         6.64472728123514    3.49396309401960    7.55495836161416
H         2.92291354029809    1.13299282992844    8.60213547154077
H         4.19694447094680    0.59966787142160    9.49645934515720
H         3.41329223202932    0.99935576080369    4.62979408677061
H         5.02099114140938    1.24962144374258    4.38006033597458
H         5.12746953734118    2.65644679759460    9.76102938952232
H         3.40219438676336    3.05515257466522    9.87219658613608
H         4.47234643813901    4.56919009161772    8.24343465521211
H         3.32830163322125    3.47121754683465    7.44254193504229
H         4.98832966509904    4.70387483996301    5.77509522870301
H         6.08000334164815    3.44491393947381    5.15029290221408
H         4.00014358043255    3.36626326918662    3.91362685003706
H         3.04854017609428    3.17364194542766    5.39312893897294
H         6.67640848345764    4.58949955180047    7.62706785113128
H         7.43609415498217    3.16710573817278    6.88235742900765
H         6.84252230379545    3.06712789385446    8.53531064943970

