69
CSD_code = CENZIG | q = 0 | S = 0 | Stoichiometry = C21H37BClN8Ta | MND = 6
Ta        6.62675766124532    2.01605139618121    8.88559787042853
Cl        5.17441867359093    3.74235830289266    8.32611926272614
B         5.27038865620435   -1.18546380907758    8.74340935197269
N         4.65044413391181    0.98268663449599    9.86199634272686
N         4.36128916793021   -0.31029863196604    9.61738675071950
N         5.66820213002118    0.69211880006257    7.10845418588401
N         5.29940524704102   -0.58458545583197    7.32890750581687
N         6.69189267831159   -1.19018095086616    9.32983655110492
N         7.45632627621289   -0.08444511941482    9.38901610516652
N         8.03301887531608    2.67700578598062    7.97925818169961
C         3.61707369950120    2.90617817591545   11.04394581287578
H         4.61285505737689    3.34132147500602   11.06188316637664
H         3.16894429997155    2.96416468890292   12.03504266727640
H         3.01174668368883    3.49618563376761   10.35507556867579
C         2.55550102824781   -1.97843858160510   10.11743715192087
H         3.22623680078540   -2.74193760842683   10.50813348519373
H         2.31119542705104   -2.23705540113446    9.08813263381721
H         1.64055718781996   -1.97990652760066   10.70440924500987
C         5.65322042011845    2.31950579919490    5.24375287510570
H         6.31086065594691    2.89249044481947    5.89180775120327
H         4.70578780503152    2.85270053526241    5.16203854713266
H         6.08220072075719    2.23008420435135    4.24722517323088
C         4.33992884344020   -2.52420391940196    6.06077841206572
H         5.10856300115564   -3.23017083068298    6.36982103733770
H         4.07753804415445   -2.71937836223303    5.02434035966453
H         3.46021678426767   -2.68803537265767    6.68101598293927
C         9.72671793272491    0.54909021544190   10.14557847152497
H         9.40906102783283    1.52785993648805    9.79874990606354
H        10.61210548083172    0.23050981302670    9.59651065447915
H         9.98985051457243    0.59537110639865   11.20146343173715
C         8.62431935462993   -0.42062740920308    9.93097133650272
C         8.61207835273408   -1.78372729628320   10.23209909608364
H         9.39912163748425   -2.35798501060763   10.67692914640740
C         7.36689911466110   -2.23888439801531    9.83604843306256
C         6.82758995626549   -3.62006529870431    9.93875699906475
H         5.93003620745760   -3.63968674971763   10.55425007427493
H         7.57665839748034   -4.26568605550886   10.38931662116757
H         6.57183729597034   -4.01012075613098    8.95551011475742
C         9.05466428275849    3.26289495687827    7.20604618134434
C         9.39175404922606    2.34778373429355    6.01010097037691
H         8.52943429681141    2.24792775896308    5.35897102136488
H         9.65938214703908    1.36055084229599    6.37914712189214
H        10.22358496285726    2.75787439632760    5.44261860865854
C        10.34410788799082    3.47402649000244    8.03121984939603
H        10.11411847396618    4.00431809398114    8.95065903150070
H        11.05820822822410    4.05837038777121    7.45591821529750
H        10.79504300386676    2.51796549197350    8.27768783368657
C         8.58209911918794    4.64207395228851    6.69707538068553
H         7.67776435952425    4.53855774638163    6.10471456799007
H         9.35430667877515    5.10795968352778    6.08949141560227
H         8.35515250878406    5.28197696557719    7.54619810042797
N         7.12957098089974    2.66291842624307   10.73336923909482
C         3.66123468536933    1.49236873049253   10.58793434650375
C         2.70494930160941    0.49824979554972   10.82330011455627
H         1.79295497536828    0.59499883164139   11.37698372243158
C         3.18220956730025   -0.63210784582254   10.18819423434174
C         5.42304421923759    0.97654280603765    5.83222916849793
C         4.89313160372577   -0.15500991673218    5.20629531181262
H         4.59661218582126   -0.25015163024793    4.18156565141717
C         4.82668200395533   -1.12529269398188    6.18893896469809
C         6.86680484140518    1.92812796260287   11.94595109721836
H         6.25893785263796    1.04898661653568   11.73935714471991
H         6.34187555718882    2.54254858044836   12.69134735261873
H         7.80777637400757    1.59096734671510   12.40846911043057
C         7.89657440434930    3.84723963389270   11.04018577988305
H         8.05484656618208    4.41140419664488   10.12379125154821
H         8.86995894845420    3.59456425611427   11.48609937118606
H         7.36027951788818    4.48668120410861   11.75590663264675
H         4.85419118412326   -2.28741620299373    8.70392694449094

