111
CSD_code = CEPFOU | q = 0 | S = 0 | Stoichiometry = C54H51NP4W | MND = 5
W         2.79794023713614    3.08826768873276    2.16196179575108
P         1.22306391881620    1.90478710836867    0.81971529425195
P         0.94036800229449    2.81129869770866    3.58501008640452
P         3.29388878644518    1.10878450991195    3.30240944050388
P         4.52578786676301    2.11711186332946    0.85053380872247
N         3.19550609767844    4.81915443787272    2.22389878715302
C        -0.45499461611083    1.66224252314908    1.60840779355607
C        -0.64956114309341    2.76836523650796    2.62924631980271
C         0.84925354767492    1.17341840819076    4.38203304233081
C        -0.25644827503533    0.76853323360804    5.11732250816743
C        -0.33196395865466   -0.53830154958723    5.57735805368669
C         0.69750207573461   -1.42767075823738    5.32101088341471
C         1.83087966585706   -1.01368824829885    4.63602057786381
C         1.90624713943375    0.28755408259216    4.15915113357317
C         4.37069546222726   -0.16438776086703    2.47149656125682
C         4.62483334674722    0.27837759616383    1.03164117767945
C         1.40592914009706    0.29212179004717   -0.02698638487580
C         1.87114045887699    0.22297421392902   -1.34002399789691
C         2.18156720377687   -0.99850582167658   -1.90996988022323
C         2.04897910103727   -2.16599195402879   -1.17657980919657
C         1.62048948570332   -2.10445510052925    0.14185658633777
C         1.31692414784898   -0.88564935562460    0.71557896731938
C         0.65235095850775    2.93515931876500   -0.59011942306816
C         1.08964378222104    4.25013692254065   -0.63639129238320
C         0.66368208490878    5.09856000317208   -1.64235375838583
C        -0.21262524150317    4.63534195506153   -2.60905322525663
C        -0.66947255198437    3.32729339135387   -2.55868055091490
C        -0.24520169743323    2.48020064629813   -1.55250026585598
C         0.59659916384140    3.94056025769198    4.95824339954278
C         1.12746355168590    3.67858344086870    6.21895431339995
C         0.98088192594916    4.60084956098241    7.23778929774503
C         0.31397697893319    5.79357653519436    7.00610924429371
C        -0.19755604711401    6.06858089616041    5.74727640048248
C        -0.04930084743632    5.15170638839347    4.72274851767742
C         4.25148681732304    1.36273061925443    4.86046537151574
C         4.83257215928202    0.33742447006554    5.60014509641145
C         5.47999795944048    0.62289655327817    6.78794523886813
C         5.54465517977633    1.92721560359548    7.25243903549107
C         4.95465487361501    2.94937576582817    6.52817058107374
C         4.30744358562735    2.66404712846922    5.34043845250555
C         4.59693708748575    2.35682213631321   -0.95513012405232
C         4.82058088678067    1.38624326452329   -1.92447372011210
C         4.76173604927147    1.72816427771120   -3.26514564738318
C         4.48296066056925    3.02937205945889   -3.64697932185627
C         4.27056788844504    4.00434857055682   -2.68401220480916
C         4.32630489059533    3.66626081105679   -1.34713068840138
C         6.22273393372058    2.59875775309091    1.32089327945360
C         7.33263181696458    2.22834181140252    0.56704446168717
C         8.60032746449415    2.57126328164597    0.99852371285840
C         8.76722998595312    3.27907501537525    2.17961865924861
C         7.66317814195678    3.65835844273202    2.92478085124076
C         6.39257139474027    3.32298723492188    2.49277692691671
C         3.54484421456402    6.16718734029744    2.39801588010588
C         4.25821360102421    6.36366199944012    3.71869557742866
C         5.63866111555099    6.49636438096672    3.78395310374050
C         6.27400597971976    6.60772829587457    5.00642498968011
C         5.55054183903065    6.58569957072165    6.19292087794412
C         4.17102264264272    6.44394060718237    6.12282578864293
C         3.53240166338802    6.33203691119920    4.90168027320223
C         6.25666243831246    6.71246543601898    7.51058899290251
H        -1.22834164350967    1.67825411468722    0.83351638086077
H        -0.47759749255680    0.68831173558849    2.10794330813673
H        -1.52380858464748    2.60143543073438    3.26694848193254
H        -0.74929674295845    3.73331488269643    2.11799900922260
H        -1.05236141352218    1.46990472539556    5.33130098821973
H        -1.19945357558739   -0.86280491749618    6.13366161458275
H         0.62598280461264   -2.44822464438085    5.66940793014117
H         2.64353739808798   -1.70681316158964    4.46954841738541
H         5.31707906245382   -0.20865381163045    3.02202914980308
H         3.89876246394553   -1.15232858306798    2.49126712232603
H         3.86477082331022   -0.13789402759602    0.36461130467194
H         5.61152875628399   -0.05505192358429    0.68818925354749
H         1.98497190986742    1.13289864202617   -1.91375462502062
H         2.53202001998773   -1.03775399784103   -2.93184658898436
H         2.28864661134014   -3.11962751453575   -1.62421595889258
H         1.52956187160584   -3.01201438031589    0.72277108642200
H         1.01760123919083   -0.84141675047024    1.75572685786780
H         1.76781481472520    4.58402066045675    0.14757689668956
H         1.01174103565071    6.12153677003303   -1.67342509292500
H        -0.54653071816216    5.29173210462740   -3.39999556345372
H        -1.36078090331421    2.96795875386376   -3.30827289475872
H        -0.60210021935004    1.45818594590691   -1.51965300882072
H         1.65492133683620    2.74908307789489    6.39227176707802
H         1.39033616706863    4.39009295438301    8.21543728785342
H         0.20037404396267    6.51431138298165    7.80281609868930
H        -0.70497555238632    7.00518679251718    5.56411184983455
H        -0.42510988549233    5.37280789446081    3.73260564428470
H         4.78123850732664   -0.68541955162524    5.25140965154129
H         5.93410164518684   -0.17611029088791    7.35749732081563
H         6.05139741959646    2.14220120806488    8.18246027756899
H         4.99449321252433    3.96766999078010    6.88472115954989
H         3.83171117956338    3.45138282246414    4.75734520903452
H         5.03377718149799    0.36468633206135   -1.64415041545460
H         4.93083611723527    0.97062745942473   -4.01760862611892
H         4.42938727166099    3.28360637731304   -4.69558933620634
H         4.05383484115313    5.02009696360180   -2.98116522493473
H         4.15107109717624    4.40394972984496   -0.57044078718496
H         7.19940476707205    1.68484192907677   -0.35962690353981
H         9.46355696983692    2.28652740170277    0.41365852316525
H         9.76174436764769    3.53885222132854    2.51298409924305
H         7.78758319244952    4.21607612735210    3.84141156524234
H         5.51031387090548    3.62475416223782    3.04787313804075
H         4.19990148254440    6.49073877272256    1.56978852446341
H         2.63775100761663    6.80063127840361    2.36781166889488
H         6.21990295036663    6.51284374971307    2.87201787102685
H         7.34935082870624    6.71916821001223    5.04407845540447
H         3.58408237305543    6.42184268575454    7.03120507359645
H         2.45854843305669    6.21777810319220    4.86392768416514
H         7.01631115883990    5.93769262987080    7.61332824951609
H         5.55635739540615    6.62584894028489    8.33827156331097
H         6.75675507984456    7.67820109304487    7.58162369496557

