63
CSD_code = CEPHIP | q = 0 | S = 0 | Stoichiometry = C18H41OP2Rh | MND = 5
Rh        2.47073933488624    2.14252576463791    4.94911917059316
P         1.66662962602019    2.29941917535266    2.81284708330351
P         4.58249740622585    1.42207518675276    4.60317282371245
O         0.65021941063418    2.97878153843844    5.13743987304170
C         2.51200532570645    1.53814557137565    1.33139892122691
H         3.53549353957022    1.92138530979036    1.31859449241368
H         2.57583596388804    0.46871949023901    1.54952921799030
C         1.88414549704180    1.74160933640770   -0.04092839162077
H         2.44996464305368    1.18573598641102   -0.78819707085543
H         1.89192029377589    2.78954940773948   -0.32930166606515
H         0.85846598035392    1.38281927574340   -0.06710978750149
C         1.22681908073047    3.97806940694508    2.18330855463597
H         0.64803522955002    3.88383436180968    1.26117057980290
H         0.58056319649544    4.40906438126495    2.94971477166001
C         2.45528147153710    4.85295596774185    1.97711032084973
H         2.16791111711505    5.86977852312308    1.71236587287002
H         3.08884113638224    4.46061463435639    1.18349393240322
H         3.04078653994889    4.88731318389481    2.89431060545417
C         0.00658073117834    1.49896454464993    2.72879274303520
H        -0.63756928653932    2.10356934534504    3.36723462946044
H        -0.37892085506862    1.52321204313890    1.70672209688997
C         0.05900874578797    0.07738802149686    3.26936928286398
H        -0.94038486730487   -0.34888554264623    3.33947557123237
H         0.50014996767099    0.10218263779725    4.26772234454030
H         0.66270033673330   -0.56837012196080    2.63319857001853
C         4.86878848856670   -0.12911192808371    3.62485911898603
H         4.69337036536291    0.11257880193879    2.57483618459263
H         5.90279240986343   -0.46587564126650    3.72533665261553
C         3.89762794479101   -1.21157476964551    4.07622008910508
H         3.91855288039740   -2.06644815476037    3.40220795125062
H         2.88678602891688   -0.80099074463956    4.10007808982476
H         4.14451640837223   -1.56123552967203    5.07657634060233
C         5.64379925635367    2.59739004271391    3.63614899302319
H         6.64362488163968    2.18758559408745    3.47885552851621
H         5.16722358552224    2.71644861093737    2.65965841188327
C         5.69398881204568    3.94695906980166    4.33844769095200
H         6.15585718792298    4.70481446542977    3.70762839054939
H         6.25394421426345    3.88578082235803    5.26920122545714
H         4.67665708004264    4.26396211168303    4.57640539438452
C         5.67841086005928    1.08407228955694    6.07638719974622
H         5.47747230392678    1.87442408523509    6.80463012019697
H         5.30656616352466    0.15104441234404    6.50998959313575
C         7.18136297340071    0.96883980619469    5.85394993012274
H         7.66058825247952    0.65017487352580    6.77893220637342
H         7.61624614627460    1.92221321949095    5.56599915830139
H         7.41966009049205    0.23540172554507    5.08709980448602
C         2.27213107377659    1.06096683901159    6.83878739419166
H         1.28496057979322    0.60744717488279    6.85927797010263
H         3.09607165475353    0.37514349892009    6.99085381255749
C         2.39643248176361    2.40096145946915    7.14433464899811
H         3.35419207979062    2.79644652091380    7.48044006952020
C         1.18744681541048    3.24461785331122    7.45191116458826
H         1.41999297853836    4.00240148212600    8.20142775112358
H         0.38371460919718    2.60826409690980    7.82865277927481
C         0.67846216881359    3.92087475611603    6.13847540242796
C         1.63203115010544    5.09152276948364    5.80711440288107
H         1.28313207161828    5.61528345400449    4.91938836184252
H         2.63159456711516    4.68828220453037    5.60762014208161
H         1.68819097649922    5.79835823884263    6.63273181002683
C        -0.74203723221840    4.47505434453542    6.34739983931387
H        -1.07684856755777    4.98049546008804    5.44417157445818
H        -0.76194012169203    5.17729471886322    7.17746841814056
H        -1.42668318525995    3.65587453519848    6.55394184244719

