87
CSD_code = CEPHEM | q = 0 | S = 0 | Stoichiometry = C38H44MoN4 | MND = 5
Mo       -1.67780341858902   15.15800464286820   11.78033601885752
N        -2.16128045293862   16.96598527208685   10.73746566588085
N        -0.96964707427292   14.89632386671114    9.84621310370242
N        -1.83266190517214   13.46412034783116   12.25724227265532
N        -2.99472122691411   15.84909072159670   13.16734597323853
C        -2.73923726671842   18.05720352136779   11.27317630880969
H        -2.92475662617563   18.02665178083884   12.33972748930288
C        -3.08083868907982   19.17686248154767   10.55829435381530
H        -3.54435619537111   20.01211380552455   11.05722053378486
C        -2.81963792796789   19.21654251496518    9.18102337411053
H        -3.08253904366903   20.08141840882825    8.59275909841825
C        -2.21451284817206   18.12673244124792    8.60960262184873
H        -1.98745881787366   18.12228692592469    7.55572388980553
C        -1.89104549187057   17.00699316055664    9.39365806539631
C        -1.21702841697595   15.84471142944111    8.89356348077946
C        -0.77843450927789   15.68013365109862    7.56868412106956
H        -1.00156167071078   16.43650601644384    6.83369602910302
C        -0.06333641708618   14.56337785952941    7.21608051778043
H         0.28096486448041   14.42227137588903    6.20368494016221
C         0.22307920723249   13.61781068776463    8.20989119822769
H         0.80624054867162   12.73962053724814    7.98818175479459
C        -0.24604872260138   13.82390739993592    9.48332798530339
H        -0.02491226834496   13.12505698045495   10.27838603766706
C        -1.98068613192859   12.21979456146641   12.70569035490086
C        -2.25530326760367   11.13365845893570   11.83283460241363
C        -2.36812680728096    9.85332340791063   12.34163365426604
H        -2.57051267768936    9.03109912979225   11.66995769853422
C        -2.23781617409834    9.60214757471078   13.69495886122088
H        -2.32770802902625    8.59494837687587   14.07443685953155
C        -2.01068028735654   10.65904130342277   14.56073615879953
H        -1.93870357660329   10.46180937553580   15.62017950354851
C        -1.87604327985718   11.95388233863853   14.10213850331773
C        -2.45687560300101   11.37557236866735   10.35397278169139
H        -2.33201121378236   12.45209210632092   10.16487525937258
C        -1.42438877868927   10.61146493528120    9.52183779535194
H        -0.41645686913853   10.82468133386376    9.87139288703691
H        -1.49736828784292   10.89264187397305    8.47252536374611
H        -1.59164316536272    9.53981930683115    9.60048431486105
C        -3.87556144387334   10.98984930190639    9.92461758709617
H        -4.61355328800391   11.53176252906601   10.51270043211488
H        -4.04660917398365    9.92525491577085   10.06473955318163
H        -4.02926987309760   11.22611203457942    8.87266836496968
C        -1.68747349992458   13.09925623270746   15.06846818210869
H        -1.37477408999232   13.98075778898787   14.48712361357730
C        -3.02770466464174   13.43038358010497   15.73291944919283
H        -3.75951279650431   13.71206312395618   14.97885065120997
H        -2.91493285466682   14.26317715850796   16.42348389920346
H        -3.40626412350523   12.56942585956575   16.28115851873049
C        -0.62223176696761   12.80805064485961   16.12773399664970
H         0.29917199527475   12.45944846933067   15.66526138983562
H        -0.96115033486657   12.04937934399314   16.82916581926336
H        -0.40524513683950   13.71200678833520   16.69426509626934
C        -4.31526325504807   15.63260968639996   12.86156814387221
C        -5.11902063386716   16.25661322840669   13.78243273555367
H        -6.19314978346199   16.25805151461250   13.80231587717019
C        -4.25627718610365   16.89890625955338   14.69833857311575
H        -4.55014357537049   17.47917311818197   15.55266667584348
C        -2.97155480831289   16.63012359929575   14.29089969717488
C        -4.70526225812964   14.78033109273877   11.69231524737750
H        -5.74495272308650   14.97032981095227   11.42596907511033
H        -4.60676034040738   13.71817876790726   11.93806138342806
H        -4.07929912174592   14.98832309713048   10.80441554034941
C        -1.68690695820415   17.07592745147365   14.90949014051455
H        -1.87368245478310   17.90218267712856   15.59197713922959
H        -0.98371107375646   17.39448957780561   14.13770736346056
H        -1.22329208107470   16.26360439644098   15.47084087209513
C         0.03160143144070   15.73351768239544   12.26834910766843
C         1.48086386508059   15.74009955917205   12.45079042459049
C         1.93938344565641   14.36966817198311   11.96157648385762
C         2.79728844514915   14.18194164451229   10.88562930739013
H         3.23923992521052   15.02384265997446   10.37604222153010
C         3.10596420928410   12.90491244650969   10.44276317151590
H         3.77774911497436   12.78138594193701    9.60494715150559
C         2.56070205004644   11.79516592919589   11.06114004759313
H         2.79865572856242   10.80227805126762   10.70795318931384
C         1.70817799425110   11.96947474492660   12.14061669372468
H         1.26972562608682   11.11367484913393   12.63317942693706
C         1.40435484356237   13.24204101397434   12.58457019806475
H         0.72861765620500   13.36613634922564   13.41599855551062
C         2.05324305489970   16.90269130875750   11.61987636378516
H         1.76145235516892   16.80675994969344   10.57486108162625
H         3.13849505129545   16.92850374001514   11.69293730097034
H         1.65823125835413   17.84360199576324   11.99818594609651
C         1.88568556981318   15.93969086657692   13.92350050550036
H         1.41120197239754   15.19444313636132   14.55471358041719
H         1.58105061137283   16.92603587204313   14.26512923010932
H         2.96586161461276   15.84945975492567   14.02254556132118

