51
CSD_code = CEPJIR | q = 0 | S = 0 | Stoichiometry = C14H27CrO5PSi3 | MND = 6
Cr       -3.60713698982179    6.25954186697625    0.83177070662803
P        -5.39299690983420    5.54608468267411    2.41988480341972
Si       -4.55887465105819    4.58541502787572    4.32318714867877
Si       -6.81501551725315    3.97743261159248    1.56155429778596
Si       -6.71844551211259    7.28905070985759    3.07116698621739
O        -1.42075179168311    7.02714941324354   -1.05739502275117
O        -4.41913336543053    9.05305628346446    0.13086723763114
O        -1.91454250649899    3.79402824440802    1.13643995197598
O        -1.91039612813664    7.90652317877763    2.66821395433141
O        -4.89046621476496    5.34336453327280   -1.72312959771011
C        -2.26313291582767    6.71968835878243   -0.32941568252038
C        -4.26043255426440    7.95811540079144    0.45539014532082
C        -2.65534197196737    4.67661412558021    1.08989870660481
C        -2.60955870485854    7.18562635360570    2.10122540272420
C        -4.48523553146513    5.60587720185170   -0.67606747786294
C        -4.10084061502926    2.77193297544385    3.93491408778377
H        -3.49084599102761    2.35434764894270    4.73064815778830
H        -3.52825748162335    2.70484664951346    3.01557910713546
H        -4.97591518766766    2.13951510751136    3.82881322218914
C        -2.97633659533247    5.52035149227602    4.82908689304172
H        -2.59429860069551    5.15926658828546    5.77975322953222
H        -3.14789543538626    6.58749479763198    4.92830033005912
H        -2.19504919787812    5.38058460546309    4.08700463528226
C        -5.79972741311850    4.63266316960770    5.77761795167891
H        -5.39615160894261    4.08439406707988    6.62312582956997
H        -6.74919735798729    4.17885111702946    5.51739753620447
H        -5.99081234603779    5.64778871196082    6.10864586336850
C        -7.89231561013455    3.14882074757493    2.90685728949230
H        -8.58366652486137    2.44899955183862    2.44806905941680
H        -8.47900280531441    3.87535468236921    3.45704158041929
H        -7.29337452248643    2.59584841633462    3.62180860858574
C        -5.75153240545566    2.65902352680283    0.68011399858686
H        -6.28745422649905    2.21877802326399   -0.15554660021029
H        -5.46632015333911    1.85127877516370    1.34634872421985
H        -4.83930894321531    3.10286668433074    0.28769148950819
C        -7.95601355254568    4.85332500324784    0.30639099263738
H        -8.60464117281959    4.13753034723727   -0.19001497243389
H        -7.37589239838513    5.35418683570506   -0.46243445155278
H        -8.58794287373782    5.59566940591894    0.78293646263686
C        -5.59748277903154    8.40352032699089    4.14079698595345
H        -6.06553138697496    9.36266849365816    4.34088330104962
H        -4.65912510403132    8.59570576534972    3.62663627565248
H        -5.36480348520029    7.94538436801004    5.09723267264355
C        -8.28171360084169    6.77102346006837    4.04341855201934
H        -8.79757975143617    7.65553212393436    4.40434796355997
H        -8.05123992607561    6.15340436954970    4.90276021433509
H        -8.97529029920519    6.22412429555917    3.41311753492873
C        -7.28371141381425    8.19801912792049    1.48678411866148
H        -8.36584081877376    8.26509384401940    1.42377005207351
H        -6.92811206802721    7.68635374587183    0.59626576155534
H        -6.89361508208911    9.21058315577783    1.45374598214733

