51
CSD_code = CEPJUD | q = 0 | S = 0 | Stoichiometry = C14H27O5PSi3W | MND = 6
W         2.68652715441689    2.58606787314543    3.71786384921913
P         2.91638231581769    4.56089630548691    2.10430591660762
Si        2.22980661881823    6.54810798947902    2.99334595547515
Si        1.68886552080119    4.31929620747421    0.19096559769492
Si        5.09670165432997    4.86120968978433    1.50921052602107
O         2.31464471111075    0.20129148613133    5.69950448525901
O         2.67044598920354    4.35271879015796    6.30582056483944
O         3.11074506999995    0.26432790956797    1.67018994470295
O         5.71043072683708    1.92707045492625    4.16844775585948
O        -0.43424040788067    2.61038211877705    3.38828918481567
C         2.44571248321807    1.07894516016803    4.97267069552853
C         2.63944642290266    3.79002784784542    5.30718841856862
C         2.88638704250066    1.19244187699810    2.30410651451678
C         4.64036340065411    2.29160575764175    3.98108400107238
C         0.70669078519895    2.66895158984155    3.48436600310864
C         2.00681553335088    7.89142779272274    1.65154787998342
H         1.73233105869395    8.83478461241561    2.11280853420017
H         1.22774775478865    7.63518369711287    0.94254605821427
H         2.92185324166415    8.05458859704865    1.09322980934394
C         0.57375001013614    6.24913194019612    3.89438905041169
H         0.35922912405166    7.05064232729335    4.59518295751355
H         0.60235849451527    5.31917421714176    4.45677003337349
H        -0.25946769595996    6.18755035111475    3.20201838487570
C         3.55024168814307    7.16188432648945    4.22840994360495
H         3.21168702865648    8.06295611204010    4.73143646039649
H         4.48676988159388    7.39360595653421    3.73193854816273
H         3.75514404018270    6.42042478118055    4.99322898930131
C        -0.12764318342045    4.80165559650355    0.53576787805677
H        -0.75881767473402    4.51407515694037   -0.30017081293651
H        -0.24940257003641    5.86939995089000    0.68418129535751
H        -0.50719661157125    4.29766727683514    1.41823477195656
C         2.36437080292389    5.39349140313057   -1.23851215544120
H         1.68775462678301    5.34752228454427   -2.08604706137420
H         3.33374245231963    5.04266192935000   -1.57640740176837
H         2.46278177842667    6.43503458701487   -0.95466804764840
C         1.72743678435219    2.49295174144120   -0.35614746761991
H         1.25995885313392    2.37032178668971   -1.32908339502849
H         1.18685465141642    1.86643624123738    0.34778479167611
H         2.74112174403100    2.11201863303259   -0.42908693387933
C         5.43923034467934    6.45062450950704    0.50484614511540
H         6.48890757161811    6.49177479803530    0.23118333112909
H         5.21883994256423    7.34007755514858    1.08588232129680
H         4.86101824301599    6.49687526348655   -0.40964919224277
C         5.54869953424884    3.31132435037133    0.49055964941139
H         6.62130231775236    3.22995159379302    0.34332503513483
H         5.08174583244241    3.32535998700128   -0.48962569960748
H         5.21663531379758    2.41237636890742    1.00417480806275
C         6.12132494707483    4.96234167239556    3.12125305666999
H         6.90505567000812    4.21135421523002    3.13875371280034
H         5.49322704068156    4.79720511811306    3.99300224433989
H         6.59808194073904    5.93140221167909    3.23338306386018

