47
CSD_code = CEPLAL | q = 0 | S = 0 | Stoichiometry = C23H19N3OPd | MND = 4
Pd        2.09241085890508    0.33768668915887   12.63721756391734
C        -0.59931501915297    0.71502142277599   13.42442746233845
C        -1.97821483925865    0.72301394288806   13.47203773415397
H        -2.55037071799825    0.30658677092572   12.65763400400578
C        -2.61762361032869    1.27679001323989   14.58667285099835
H        -3.69770839393846    1.28045460489134   14.61843468155034
C        -1.90322801619338    1.81059429239846   15.62934214338702
H        -2.41607142576036    2.23426897272865   16.48136250676064
C         0.31053742159772    2.34983422382175   16.64169457572329
H        -0.16477292115451    2.78250521493738   17.51080821853413
C         1.67390790022258    2.31469099054030   16.53407005181268
H         2.28515774956333    2.72491824545606   17.32691544519099
C         2.30945107924947    1.75433027355384   15.40949215780553
H         3.39435442610655    1.75884497966354   15.38170601502722
C         1.57908660082668    1.21928172883392   14.37069787885181
C         0.16400078974637    1.26094257948330   14.49057266876004
C        -0.49223130286711    1.81855541646781   15.61110675115032
N         0.17298622030398    0.20057229357214   12.37968046980111
N        -0.46416998399824   -0.29299347456729   11.39499656333074
C         0.07736749283380   -0.83916619600809   10.29584987775985
C         1.48659730333638   -0.99479242961350   10.00018515880487
C         1.80043529935398   -1.61356839880438    8.75566223961837
H         2.85019572846959   -1.73317846517801    8.52750324853085
C         0.84035743557408   -2.03740379866123    7.88690783338161
H         1.12867594155674   -2.50085281615214    6.95312040057739
C        -0.53224375061417   -1.88645252695910    8.17536605306658
C        -0.88019077939343   -1.29921148337791    9.35802477062962
H        -1.91798529092791   -1.16185521404989    9.62440155613931
C        -1.55455028683534   -2.36785103325925    7.19071886222324
H        -1.43470244829902   -3.43576815287983    7.00913767040594
H        -1.43616744747805   -1.85329187081976    6.23723823236915
H        -2.56114994683509   -2.18879293236211    7.55933754276531
O         2.43947790631489   -0.62349596622078   10.76198879781501
N         4.08820623157093    0.42439280692343   12.84533493981878
C         4.78132662556882    1.11615938054357   11.94100425565848
H         4.21889558045126    1.83593014331720   11.35010748728818
C         6.13941980670026    0.94393164401478   11.75449734636943
H         6.66042906491190    1.52668929896529   11.01028522262772
C         6.82962529445782    0.01256105145443   12.52697285638212
C         6.09189324430495   -0.70293449800488   13.46543954314289
H         6.57245755446434   -1.43881537127244   14.09196869764546
C         4.73467456048941   -0.46966839938877   13.59219709233475
H         4.13673720842782   -1.00746143332289   14.32441632165180
C         8.29256185288107   -0.21755621111872   12.33680502225013
H         8.72776254073854   -0.70495530781571   13.20528259059287
H         8.81049801970226    0.72156618613290   12.15529970479968
H         8.45240844239969   -0.85895718685166   11.46977693224905

