52
CSD_code = CEPLUE | q = 0 | S = 0 | Stoichiometry = C15H31Cl3N2W | MND = 8
W         1.59988836031342    2.89202255479105   -2.16077492032889
Cl        2.48767630137298    3.73988423697573   -4.29407473280924
Cl        1.21365903106208    1.54731656962745   -0.15827684041803
Cl        2.43338950395412    4.73219138812559   -0.87946527310526
N         3.85248607543627    2.27260030036780   -1.88098656989625
N         1.59453542928720    0.78016220848947   -3.18112263203725
C        -0.36025070274144    3.03954137224051   -2.98475578765839
C        -0.36468731506076    3.63188402261857   -1.62347614970407
C         0.15481916141991    4.38410434222358   -2.71339681618817
C        -1.49789796018715    2.67720580475932   -3.89887214171712
C        -1.37971770060476    3.83703141277153   -0.53390973577084
C        -2.10491489647383    2.51929784410636   -0.23293554050958
C        -2.40397863063594    4.88992009540224   -0.98080296778373
C        -0.66548981273202    4.34325307528393    0.72572447352882
C         0.01681544257513    5.72944089415315   -3.32924297325319
C         4.02227725184989    1.11043344050099   -2.76880703176919
C         4.83948368388140    3.29272108006091   -2.28517223442839
C         4.21101214123669    1.90652875450946   -0.50046577672491
C         2.83527992936003    0.15831132709269   -2.68407188200956
C         0.47449312664377   -0.08481941638581   -2.77500121766590
C         1.60539349403233    0.78868694450081   -4.65004515190556
H         4.94274816837069    0.56518366080748   -2.51099732107873
H         4.12567575895405    1.48078640997800   -3.79327687121069
H         4.77196714655337    4.14922428539548   -1.61523016717504
H         4.64578374691151    3.63430379727148   -3.30130375809089
H         5.85325902330804    2.87807163502410   -2.23380124397142
H         4.00974287295814    2.75507159748943    0.15538328472349
H         5.27637219210545    1.65277561444879   -0.43830066091138
H         3.62969165834507    1.05840949564622   -0.14510520926508
H         3.05820183418275   -0.75090148382738   -3.26232621784673
H         2.66891581277790   -0.13376564631265   -1.64263603319648
H        -0.45401557538769    0.29769853566525   -3.19068913340391
H         0.38847278088706   -0.10599217276939   -1.68900166175881
H         0.63034028079590   -1.10574755845168   -3.14440312231432
H         0.67586220388905    1.22071230102568   -5.01454317703103
H         1.70007358770160   -0.23264660136424   -5.03860604705584
H         2.41962839712144    1.39834933409271   -5.03457303382023
H        -1.15131702100709    2.55833295467819   -4.92717256767306
H        -2.23407503051248    3.48272206243109   -3.89563092181150
H        -2.00505833631126    1.76050273009119   -3.59224583507863
H        -2.81352547017322    2.66038795945631    0.58043416010301
H        -1.39323233524029    1.75170497600803    0.05877582264180
H        -2.64896242819204    2.17418871038433   -1.10959121857084
H        -3.15294013001807    5.02434046321818   -0.20295152621519
H        -2.90989970474341    4.57793540366686   -1.89157178648449
H        -1.91613664941750    5.84436314193992   -1.15840216124792
H        -1.38709709457278    4.54426098079433    1.51473185372622
H        -0.11840143812908    5.25762259944182    0.50726690182131
H         0.04283993553747    3.60171877509488    1.08689483333395
H         0.58167568767310    5.78042036738985   -4.26082285778716
H         0.39443885930979    6.49666160781323   -2.65270898723877
H        -1.03110064766233    5.93638581125779   -3.55126343395650

