103
CSD_code = CEPNIW | q = 0 | S = 0 | Stoichiometry = C46H50ClN2OP2Y | MND = 6
Y         1.41924490180908    1.45576117423997   15.75332221588544
Cl        2.50225218468369    0.69006969916769   17.91799611681947
P        -1.67203175033424    2.74477292051782   15.69614190976243
P         3.45202143460858   -0.42657110821653   13.85014135308742
O         2.18232344123223    3.88813467186398   16.64512038777303
N        -0.66815140927528    2.20578774088558   16.80358206719765
N         3.52899131264970    0.94485588013778   14.64913412514430
C        -0.77597945360715    3.20200926125503   14.20202801590867
C         0.54044432368521    2.74052094129325   14.04380659375056
C         1.10899946595017    3.07395146019027   12.80243795514381
H         2.11389120786298    2.73459297109171   12.57421992995458
C         0.44117065372077    3.80841273151049   11.83550586926298
H         0.93169576611931    4.03504146621160   10.89750567982824
C        -0.85469930067573    4.25373181976514   12.05473943883179
H        -1.37418960800457    4.82821496381286   11.30045317719457
C        -1.47359463306898    3.93968612365517   13.24681590036458
H        -2.49127698747791    4.25643727173608   13.44435150070472
C        -2.95589924912280    1.54051586857255   15.19559819151356
C        -2.69877257749178    0.71187274057246   14.10870089641816
H        -1.80638755785097    0.87575470550083   13.51760800645559
C        -3.57837059778878   -0.30704670462038   13.79100971993990
H        -3.37694445560367   -0.94576944566377   12.94360482402348
C        -4.70902927307780   -0.51353422746434   14.56498082236988
H        -5.39432926459598   -1.31125426919520   14.31891480295717
C        -4.95903014822745    0.29770610712774   15.66066327023166
H        -5.83578718183852    0.13002939083862   16.26938479757328
C        -4.08346829516614    1.31956695331541   15.98021574143287
H        -4.27292165103985    1.95135739958229   16.83858755885802
C        -2.59783209240795    4.22733532296064   16.22773702990900
C        -3.88327028465678    4.56195735971016   15.82093305533225
H        -4.43657417922775    3.89876433005888   15.17021845719603
C        -4.45167022614199    5.74705880276864   16.25464382067118
H        -5.45247333555485    6.00765836841030   15.94177271643813
C        -3.74390113821251    6.59986006776932   17.08645133807891
H        -4.19614389084881    7.52114937014985   17.42289740884788
C        -2.45675112881771    6.27387435010769   17.48476620405298
H        -1.90522988243701    6.94214448104112   18.13094850509350
C        -1.88653395329076    5.09217752203762   17.05188170237745
H        -0.88387694847870    4.80431771599943   17.33917141425903
C        -1.24426881347211    1.79957818048628   18.09851505540604
H        -2.25191174854217    2.23238883883824   18.22384265909785
C        -1.35097100496007    0.27847546242987   18.17723931240508
H        -2.05076778514861   -0.09368100347770   17.42971539119128
H        -1.70173931305784   -0.02572170800964   19.16127798730111
H        -0.36736784089659   -0.16272172496246   18.00174328071532
C        -0.35954810325157    2.31555792384140   19.23013753185122
H         0.64566380905694    1.91299090383123   19.12042009722250
H        -0.76125381476279    1.99815230855574   20.18991686205753
H        -0.31770432513593    3.40205683741424   19.21743192213037
C         1.84277993114548   -1.20794597795029   14.05085204774025
C         0.87847369675603   -0.62733382302022   14.88884749283529
C        -0.30627600405081   -1.37697399426230   14.98836889696063
H        -1.11662069679241   -1.01488619038807   15.61221666475919
C        -0.50235716650292   -2.57662364537873   14.32287203580858
H        -1.43775883353790   -3.10807558522330   14.44222175862572
C         0.48773688841051   -3.10573403031867   13.50774596452798
H         0.33335976422417   -4.04250599427133   12.99072120885469
C         1.67440015342113   -2.41683102336021   13.37597970369979
H         2.47575834757596   -2.79809021386045   12.75221791337164
C         3.73498392316860   -0.17482870428021   12.06222287895831
C         2.62816929107912    0.14688681025975   11.28253127776216
H         1.64097912469272    0.09085119838156   11.72454789293194
C         2.79373560401714    0.52885652961136    9.96449326937715
H         1.93122857799893    0.77053091967391    9.36045199327169
C         4.06679347878653    0.60839008922019    9.42140356924150
H         4.19750469117389    0.90696518551270    8.39159725907631
C         5.17356224999097    0.31515162840073   10.20151624595048
H         6.16627255859358    0.39013503230678    9.78138398066918
C         5.01155902688465   -0.06757096551505   11.52153130620728
H         5.87677343243314   -0.28505120903116   12.13382781659679
C         4.65125219134247   -1.67866595703835   14.41667979823932
C         5.32237701183520   -2.58629507959489   13.60735023746502
H         5.18837428438374   -2.56384529403981   12.53456787178997
C         6.16000743297540   -3.52561223703366   14.18338542227728
H         6.68821050091552   -4.22917687934221   13.55571200081608
C         6.31885551285696   -3.56972281862373   15.55910453762198
H         6.97639452983226   -4.30473454793898   16.00005318966214
C         5.62753922405555   -2.68260999844115   16.36968074240267
H         5.73622366020647   -2.72818652552054   17.44305120885161
C         4.79093083096091   -1.74123082313618   15.80064914488091
H         4.22583186023406   -1.05043345405533   16.41606969367384
C         4.83149042923649    1.63015795112558   14.64357942047628
H         5.61587838992226    0.97904383952328   14.22323350955839
C         4.74500532498885    2.89225878229611   13.78636873418218
H         4.54138254749670    2.63039559243602   12.74897221847778
H         5.68059408471344    3.44664248922485   13.82706894460150
H         3.93536575416240    3.52293843065357   14.15361490544651
C         5.21963833711198    1.97816399210748   16.07707465787895
H         4.40701125144313    2.53224033137593   16.54243778638657
H         6.12791494097843    2.57794472230775   16.09257299199334
H         5.38481481768149    1.07429655338353   16.65787925856413
C         1.99518190624298    5.15294656872354   16.01767196418941
H         1.12846534564434    5.07204955064727   15.35711817749906
H         2.87941777175322    5.39534289406544   15.41080028514218
C         1.80900572312977    6.19815147683274   17.13587910600812
H         2.54466636013600    6.99544506394888   17.03685056766011
H         0.81788643819092    6.64619241210993   17.10144041601113
C         2.03396796293700    5.39762465206516   18.42505970292782
H         2.61275755065067    5.94411750745428   19.16571257323234
H         1.08412659879939    5.10663726251807   18.87179907598935
C         2.77214715908958    4.16305233118110   17.91400361608349
H         2.66092424157989    3.27327824035881   18.53467408174756
H         3.84035668721856    4.39379471630780   17.78670036101710

