68
CSD_code = CEPPIY | q = 0 | S = 0 | Stoichiometry = C32H31Br2ClNRh | MND = 8
Rh        2.06118488190214    4.84243439368933    3.99077255381787
Br       -2.73469074434495    8.36836937719862   -0.35294621057971
Br        0.81986273805601   -1.77354959335056   -1.46407000951440
C         2.98498293420655    6.61516987755233    4.86727473874734
C         4.20704203548994    7.37557101709513    4.45557210744914
H         4.09911093309212    7.77568766426757    3.44986676126083
H         5.09155163233119    6.74235242216123    4.48443613922339
H         4.36595112647331    8.21099282120131    5.14054945708338
C         2.94098141469622    5.66525605145487    5.96311006492862
C         4.12318437384375    5.27819447281593    6.79412133247220
H         4.32110980485685    6.06634932951889    7.52345082687145
H         5.01603123856005    5.15133395853197    6.18499726527368
H         3.94566014442265    4.34986534946303    7.33126039785075
C         1.60040123060478    5.32421883545526    6.18124792032298
C         1.03758381720224    4.44706278675136    7.25329784793620
H         1.82595401242408    3.91758213214794    7.78233531627660
H         0.35219560323786    3.71394122011782    6.82946415112170
H         0.48212164291188    5.05450100832700    7.96965771434462
C         0.78001636903108    6.08572109071635    5.24905163599760
C        -0.71238408494076    6.16529921129766    5.34264410396824
H        -0.99041874864067    6.72625870141932    6.23711316743187
H        -1.14823803352096    5.17083835368151    5.41836747244100
H        -1.13585504460773    6.66617195458098    4.47558134521538
C         1.63731279809369    6.95715994441155    4.52008708612805
C         1.22625175302117    8.11606083338879    3.66757876719130
H         0.21925618970048    7.98710116343891    3.27913724433546
H         1.90211261021083    8.25450648857064    2.82631283409479
H         1.24628660834501    9.02454695327330    4.27268482445518
C         1.76384507882105    4.93702167866574    2.01909787446659
C         0.68816258534095    5.72499066688419    1.43881022115475
C        -0.63618216009137    5.54715524006868    1.84913830747249
H        -0.86179604302490    4.78364221548079    2.57880195055749
C        -1.65037051663724    6.31452480648197    1.31303091763705
H        -2.67316606822763    6.16904866068659    1.62622959692199
C        -1.34185235304544    7.27973059904915    0.36779984881129
C        -0.03956493886050    7.47220572604602   -0.06207542267456
H         0.18133043651794    8.22401144363408   -0.80451877579186
C         0.96805916422623    6.69056465309680    0.46783112956781
H         1.98720201931217    6.83244495948062    0.13943509737221
C         2.60888126072464    4.18062349093944    1.27259693006325
H         2.53327151875815    4.07387771374531    0.19907448768249
C         3.56811110171222    3.43855574952179    2.01496227219593
C         4.41481552421847    2.39067186457833    1.35380406552126
H         5.03100200425112    1.87926591766615    2.09893390802169
H         5.07798282498637    2.86271280912750    0.62449771261195
C         3.53338957862273    1.38317250992052    0.65783572447124
C         2.38444135085204    0.91048794094586    1.28354403493827
H         2.10262325913035    1.28188239767238    2.25752701010042
C         1.57550506587281   -0.02073234799178    0.65994936453676
H         0.68165117176011   -0.37721782762911    1.14728752565440
C         1.92474314440883   -0.48497545059363   -0.59629876371798
C         3.06293231755085   -0.02977494490719   -1.23744180167130
H         3.32115209841077   -0.39856541896102   -2.21823790280377
C         3.86067900109297    0.90682684840410   -0.60468307517280
H         4.74857093142899    1.26654371853961   -1.10458996936040
C         4.44073137381049    3.07487394662521    4.20394465827870
C         3.94480995688073    2.27400201704721    5.23288895086498
H         2.88078673133616    2.09098983936939    5.28982153850975
C         4.81314234534499    1.72125238425046    6.15421053331351
H         4.42497611745795    1.09513716657326    6.94393012110575
C         6.17534009494735    1.96377174173568    6.06944792125090
H         6.84927916344683    1.53294267288891    6.79426327577641
C         6.67048776692621    2.76338728741568    5.05268505346209
H         7.73070005060108    2.95850570743305    4.98412955159327
C         5.81267544786535    3.31656678278877    4.11992367842512
H         6.19111109495770    3.94966764323337    3.32924845039814
Cl        0.71064449115223    2.97021784511957    3.93160902476753
N         3.55953677090300    3.67269152585493    3.29529811742530

