77
CSD_code = CEPSAR | q = 0 | S = 0 | Stoichiometry = C36H40Zr | MND = 14
C         4.72470702768868   -3.25664872516286    1.22013361829150
C         4.69338074630700   -4.57772470881180    1.29279082069882
C         3.97873355150730   -5.66388398945529    1.14067553513171
C         4.30258328728969   -7.04323684311859    1.40958067123315
C         5.40768374523680   -7.38671826911030    2.20225225548108
H         6.04149753223135   -6.59602199740386    2.58048253398399
C         5.68206549134179   -8.70531738013472    2.49902652690615
H         6.53781343190516   -8.95107109079199    3.11227181041908
C         4.86755421766084   -9.71733603278916    2.01340337210948
H         5.08523581162998  -10.74900915184571    2.24704401197321
C         3.77141017019380   -9.39630655601709    1.22761323271180
H         3.13342193882589  -10.18226604068626    0.84776707690858
C         3.48810036917481   -8.07829923766261    0.93262003567907
H         2.62755375402740   -7.83011843111098    0.32542697211359
C         4.04063873859706   -2.16235574487856    0.99551091265538
C         4.46815900253376   -0.78520005316387    0.95924739326497
C         5.82779050947594   -0.44761968108731    0.89451766916404
H         6.56135796901452   -1.24242308082537    0.90305423857472
C         6.22568594257910    0.87088154068315    0.81965347490625
H         7.27829157142156    1.11247459181748    0.77102853226193
C         5.28311744921006    1.88811267447586    0.80906780818030
H         5.59783159450376    2.91969343216082    0.75161788073283
C         3.93460798879561    1.57272479789908    0.87166812838657
H         3.19671111005377    2.36291419705508    0.86276338368889
C         3.53023136009479    0.25502000273309    0.94126806028577
H         2.47697198458570    0.01061705904951    0.98434762353767
C         3.47590378797924   -3.53130458493158   -1.65484565816189
C         3.09749442897853   -4.89381073205605   -1.59064675805142
C         1.68429827924195   -4.95751038408989   -1.41499233025743
C         1.18843083373799   -3.61875728679415   -1.38569826550847
C         2.30467647838178   -2.73717684552316   -1.51091354507457
C         2.19763766312727   -1.26390926383677   -1.80103052360753
H         1.33924756570504   -0.81910525347143   -1.29820927958808
H         2.06386445666957   -1.10728387254283   -2.87533486492053
H         3.09558377613860   -0.72773674352245   -1.49802865158613
C         0.75049277978627   -2.83192069825709    2.01524496236750
C         0.33235936374336   -4.16892108523017    1.73861485992890
C         1.22431952539261   -5.05438186790631    2.41636619900509
C         2.16275803577466   -4.26431344850321    3.13598519590457
C         1.87672161949811   -2.90046367167125    2.88653451984297
C         2.50540429109992   -1.75924953624284    3.63970456328557
H         3.59153786942169   -1.85251408826366    3.67397509477669
H         2.14285790126394   -1.75772716233918    4.67124956127346
H         2.26052316619892   -0.79826127240123    3.19514661817509
C         4.85836328906564   -3.04346794574283   -1.98515279100782
H         5.61539792554639   -3.59015153433872   -1.41880448844983
H         4.96635446087037   -1.98175377599976   -1.76867821378535
H         5.06612570640534   -3.19442643876508   -3.04779306774101
C         0.00329203697393   -1.56499493026397    1.68033861436538
H        -1.03391637198891   -1.78256313205853    1.42837480523871
H         0.45189400397389   -1.02177302637878    0.84294264045646
H        -0.00426126353226   -0.90015534173982    2.54451684936646
C         0.86608208669573   -6.22123822453707   -1.51047871995036
H        -0.15468476272918   -5.99921462645451   -1.81945327659274
H         0.82567872200762   -6.76755779917037   -0.56309045620370
H         1.29617631098951   -6.88462110278097   -2.26122550102684
C        -0.23024556908492   -3.17209376706019   -1.62890336615495
H        -0.93014254884952   -4.00067824292749   -1.56073542622708
H        -0.30488899622999   -2.75916790577806   -2.63870667606418
H        -0.54782154925126   -2.39405411010270   -0.93590775861656
C        -1.01352061338841   -4.61078197898414    1.22438863361712
H        -1.57934189258376   -3.77967435665914    0.81197688574126
H        -1.59270195632193   -5.02502302240612    2.05424768411925
H        -0.93574364799514   -5.38683503565742    0.46404158709829
C         3.18285217456409   -4.75463934465843    4.12457581389359
H         3.38096598539205   -5.81742937540645    3.99598269061592
H         2.82270376247205   -4.59919643570106    5.14478504840573
H         4.12500277950282   -4.21270491314940    4.02025379148424
C         4.01800518949001   -6.03802713152689   -1.91950679422238
H         4.97301557553132   -5.94381190506808   -1.40175895290364
H         4.22537991546014   -6.04403039889851   -2.99289972476660
H         3.58086135518692   -6.99739766403809   -1.65553553843355
C         0.97542639187422   -6.52616526235088    2.61105350247825
H         1.89691525578131   -7.06537454730794    2.82424826875856
H         0.50603968225753   -6.97159285741435    1.73415435712042
H         0.29831190232250   -6.67799446131001    3.45662613718076
Zr        2.54587654156230   -3.90084288960077    0.66526816511886

