26
CSD_code = CEPXIE | q = 0 | S = 0 | Stoichiometry = C12H8CrO5 | MND = 9
O         0.19524604773338    7.54570789971572    2.16794084651539
C         0.52137409130797    8.31259809872472    3.32018257417853
C        -0.03797411001146    7.69139735330287    4.59186511752040
C         0.45040014201480    6.26022245469794    4.75452934549559
C         0.72015477385033    5.57916790687140    3.48866980598642
C         1.05215846248976    4.19570775386753    3.48341163311234
C         1.12553119738509    3.47881316459356    2.29570844467002
C         0.95559908013905    4.15635100155670    1.07116625326922
C         0.62735313398584    5.51545760977905    1.04389466182396
C         0.53227042981271    6.24055825435587    2.24623308203108
O         0.54025681242580    5.71630774221620    5.83697166574789
C         3.89600806612079    5.03490801067271    3.47323743880326
O         4.77523672157034    4.93843160683542    4.20810558018319
C         3.42175281310556    6.82606844833553    1.90160812590934
O         4.01376820413245    7.79342544738246    1.69158329297532
C         3.88974208999430    4.66341445104825    1.07890350231943
O         4.75980045739884    4.35457446846573    0.38967602844417
Cr        2.58037542608398    5.23573727410219    2.21378438756892
H         1.61629769697206    8.39269567140589    3.38965815069203
H         0.09846819540322    9.30192245080282    3.13667742010667
H         0.24702188020608    8.27597271737382    5.46597019451175
H        -1.13183077644066    7.66143708704370    4.54686087541576
H         1.11891473926379    3.70144522790190    4.44659154265302
H         1.28735319299357    2.40848899531197    2.30641532955405
H         0.96899977379915    3.59695171918011    0.14320090598036
H         0.40322145826330    6.02593718445608    0.11635379453178

