66
CSD_code = CEPXOM | q = 0 | S = 0 | Stoichiometry = C33H28ClN2PPd | MND = 4
Pd       -2.85326741577795    3.68178216977011   14.85155557345990
P        -3.74594457906102    1.78818637326890   14.10925637325172
Cl       -3.40687715138534    2.87528363501540   16.91252007863709
N        -2.01161329322359    5.41882040216064   15.45754605783339
N        -2.55589246284104    4.15642578421173   12.90100438525257
C        -1.27924938427147    6.24195104091953   14.73140814430557
C        -0.61095398777262    7.34982370354336   15.34366888536630
H        -0.75662292241143    7.49470195700573   16.40430649256468
C         0.18851366590785    8.19391919556600   14.64008911601140
H         0.67919822305800    9.01494310484876   15.14285771107242
C         0.38790288898821    8.01079773632373   13.25838561714937
H         1.02942678949356    8.68462296272735   12.71208611770742
C        -0.24230269710386    6.98180754468662   12.62906107470442
H        -0.10361527651914    6.83762865630294   11.56601136512220
C        -1.09789261444749    6.07775368243891   13.31134085840551
C        -1.70930142324190    5.08769625355349   12.52936653395778
H        -1.42556721045127    5.11478905589129   11.47638194103969
C        -3.17853088850305    3.35901989174626   11.94180367246078
C        -3.32427323913038    3.74258291214879   10.60140948845311
H        -2.99306948523369    4.71584355562239   10.27195585679850
C        -3.93171666913144    2.90561373545148    9.68666511225156
H        -4.02837132381809    3.22925304657083    8.66075439994415
C        -4.43032165943231    1.66958431772763   10.06917540569030
H        -4.90427659339158    1.02426953774611    9.34574388084410
C        -4.34586968536156    1.29143137107357   11.39620603923025
H        -4.76543277190885    0.35178095187463   11.72830189902696
C        -3.73211878297210    2.12044110633252   12.32281256754972
C        -2.00980783034891    5.53338342548053   16.86083508421921
C        -0.98289481462798    4.91603326311294   17.58624494345000
C        -0.99080746132015    5.02353185764196   18.96667918285915
H        -0.20662287020026    4.55040109211003   19.54012591560901
C        -2.00069986356070    5.71455457230079   19.61451752085372
H        -1.99231692444373    5.79344642134487   20.69163446054025
C        -3.04071136403055    6.27145801515117   18.89119233293149
H        -3.84951417974206    6.77179268209022   19.40429575111557
C        -3.06396324611364    6.18231419359809   17.50883224565166
C         0.03929784044383    4.10767594999160   16.84278819459620
H         0.63588483532840    3.51391602699476   17.53042518935534
H         0.70359111623737    4.75135389863025   16.26309333375048
H        -0.47379047381266    3.42494650135116   16.13716642160715
C        -4.19865894245674    6.70564615497609   16.68094332720811
H        -3.88351532739809    7.56153594933848   16.08206156477489
H        -5.03537346336528    7.00154191718859   17.30807989288402
H        -4.52883131400985    5.91588459448445   15.99062586247580
C        -3.21962470497306    0.07844120388866   14.36299520120344
C        -2.48411151041236   -0.62031463627889   13.41100545013151
H        -2.24438126648591   -0.15455631084430   12.46462753289909
C        -2.06309518902089   -1.91008541562979   13.68232182876593
H        -1.49894119053234   -2.45730972657887   12.94109599423234
C        -2.35827758905365   -2.49701532568838   14.90217750021938
H        -2.02666233605038   -3.50399982186814   15.10835251633848
C        -3.06584683492438   -1.79021338211061   15.86298808309407
H        -3.27896544112564   -2.24325366697437   16.81976159079003
C        -3.49291882470644   -0.50250364401895   15.60074476551199
H        -4.02293992351780    0.07403510692013   16.34711045381459
C        -5.53694478880866    1.80599276506072   14.41227636217387
C        -6.09672967148836    3.06808784219671   14.60314054940592
H        -5.43754670630526    3.94577564164817   14.61152818357916
C        -7.45741083407673    3.20006047453619   14.79976511461114
H        -7.89185657783464    4.17637285702438   14.95592074951660
C        -8.26453203102171    2.07223696419609   14.80540902990254
H        -9.32773511940971    2.17207454469888   14.96621370664352
C        -7.71076186184798    0.81763107760502   14.61278677597127
H        -8.34285137301578   -0.05837386349249   14.62100040680604
C        -6.34809815277247    0.67874927275313   14.41255241021255
H        -5.91509383928477   -0.30170215739634   14.27040992218213

