80
CSD_code = CEPZIG | q = 0 | S = 0 | Stoichiometry = C41H35ClOsP2 | MND = 8
Os        2.02885332466389    3.17592322448223    0.83999929756547
Cl        3.55484090155027    4.98369323494982    0.93825167482968
C         0.26508349945281    2.15628296143456   -0.23452716266087
C         0.13409364522402    3.55691143596166   -0.46950400301754
C         1.25207283524940    3.97995434779397   -1.21070008039343
C         2.09256584464620    2.85905938208939   -1.43336502097198
C         1.46331575476349    1.72842930367384   -0.85517003917961
P         1.04021625761458    3.76294543409068    2.80378339855650
P         3.62970294836575    1.77528688833584    1.64166243855072
C        -0.24669755661263    2.55228033071301    3.25609784794928
C         3.16171918552957    0.09973017670431    2.21449550547726
C         0.12623639687667    1.38107854634678    3.91041706574942
C         4.09196693360266   -0.73142222655198    2.83645316736329
C        -0.80254949697737    0.38859156983575    4.15884189186585
C         3.72684432165730   -2.00099446897066    3.24223921714689
C        -2.11294737988916    0.54489449471358    3.73572045061411
C         2.43559273565502   -2.45888288318521    3.02596885428921
C        -2.48643683606898    1.69440809253793    3.05861479711678
C         1.50916278014175   -1.64115708909169    2.40292814810007
C        -1.55875873354188    2.69113045964851    2.81436335384670
C         1.87223626441659   -0.36672523548174    2.00201295399116
C         0.09697152510787    5.33489985089577    2.78039963428217
C         4.82726506981810    1.37271759290890    0.31199078919150
C        -0.81754488403150    5.62364080054205    3.79038648586499
C         5.09924013111662    0.07265632460086   -0.10146139312929
C        -1.50338122053952    6.82286493825825    3.78180111682517
C         5.96315591368383   -0.15666003425088   -1.15869294291116
C        -1.27469934479678    7.74886527029678    2.77524392701890
C         6.56158041638111    0.90302855854265   -1.81792263268599
C        -0.34999520895923    7.47605355169212    1.78237738268937
C         6.27843435830796    2.20146192269515   -1.42635335425507
C         0.33614521209246    6.27372159536385    1.78565730660693
C         5.40893932374454    2.43645311412485   -0.37782151376001
C         1.90858849630857    4.08878449461667    4.38414892264194
C         4.70203082540652    2.28169158306023    3.03738423183334
C         1.42611937895920    3.70740235496438    5.63133945219189
C         5.86220960918493    3.02496827821137    2.85765177225577
C         2.09793849431702    4.09066421604544    6.77874343763744
C         6.60964272226559    3.42088161780846    3.95315228571290
C         3.23927887752796    4.86977946859041    6.69507677626745
C         6.21113440875393    3.08028925463081    5.23397648666779
C         3.71314840637059    5.26611014913603    5.45553485271197
C         5.04995480971083    2.34849098996891    5.42120981878016
C         3.05388823940130    4.87710956750207    4.30518376343782
C         4.29516795287142    1.96251326233523    4.33163195704337
H        -0.50699335661351    1.51894189235672    0.17424602155437
H        -0.73485226736114    4.15512316400097   -0.23364757391507
H         1.40831702729122    4.97040077888392   -1.61323487849472
H         2.95763710278398    2.83604719872562   -2.08015319705504
H         1.79422283763933    0.70390073782464   -0.96192711341636
H         1.15486256197955    1.25757615917727    4.21921284890237
H        -0.50218429612555   -0.51102627301267    4.67630627389715
H        -2.84049097210454   -0.23027196052406    3.92671834098327
H        -3.50478419911044    1.81269865177072    2.71709817848625
H        -1.85231304505629    3.58593880517285    2.28306536823371
H        -0.99030735157212    4.90395831417594    4.57867142623413
H        -2.21685296247870    7.03996305359151    4.56372514019045
H        -1.81355469178259    8.68519535927802    2.77141098596706
H        -0.16059441193480    8.20194762922374    1.00513190730935
H         1.07309817774240    6.06540982251175    1.02255019787632
H         0.52977084439267    3.10944068174782    5.71486384012721
H         1.72177798306801    3.78400334522902    7.74457952238848
H         3.75500872862698    5.16967494870542    7.59576840839791
H         4.59912587020149    5.87874544646489    5.38306539597211
H         3.42451094039311    5.17626903094731    3.33516675368815
H         5.10010854489320   -0.37606123914757    3.00077792686833
H         4.45119345206312   -2.63885647055389    3.72774369417034
H         2.15550080110807   -3.45240384790646    3.34433516699905
H         0.50200844624207   -1.99253971240689    2.23112492937745
H         1.15073817363229    0.28505044933559    1.53059878621357
H         4.63409788546533   -0.76728668714194    0.39354565346674
H         6.16461636970295   -1.17126405986164   -1.47160076151780
H         7.23463454318025    0.71789566585714   -2.64236824880253
H         6.72706421048747    3.03488366317068   -1.94735781624188
H         5.15594539152244    3.45224017270227   -0.10486139685116
H         6.18443231344417    3.29293528688651    1.86419205867522
H         7.51091367739768    3.99702499420517    3.80345691102646
H         6.80111918137959    3.38531518062074    6.08570261299787
H         4.72852123069240    2.08382430293758    6.41785457516858
H         3.38697411958213    1.39559881236139    4.48151574138773

