80
CSD_code = CEQBEF | q = 0 | S = 0 | Stoichiometry = C37H40O2Ti | MND = 12
C         8.06589961921756    3.07885759108975   10.78592069648584
C         8.37959083822586    4.44210271799730   11.06558284803587
C         7.71227772233680    5.24773264387436   10.11107286365259
C         7.04503683772102    4.39606903296264    9.19319111572388
C         7.27716665377567    3.04438058075705    9.60693215557967
C         6.54201130859221    1.82964904590406    9.11895186404714
H         5.99937581949662    2.04124624651328    8.20162011500906
H         5.81996200663363    1.51148244729866    9.87509250783589
H         7.21613466853394    0.99384745324586    8.92565476714113
C         8.74923822992242    3.55588601460598    7.00301421846356
C         8.75297948314284    4.69008118771956    6.27944809609360
C         8.59850292808094    4.81185963578214    4.81756062380092
C         9.14350178490850    3.86726546040709    3.94865541360564
H         9.70410700248009    3.03521469521284    4.34547589024134
C         8.97204340470885    3.98051787237366    2.58263012879579
H         9.40323378873564    3.23843668553862    1.92566682274576
C         8.25266658910193    5.03947894819315    2.05518764858477
H         8.11872626553476    5.12668386920497    0.98678631010628
C         7.70803814369635    5.98486491484360    2.90729464842445
H         7.14504326512203    6.81420193552324    2.50396359219050
C         7.87644273517184    5.87513330196540    4.27489681304538
H         7.45318094157424    6.61850399353667    4.93086783486623
C        11.40786534688539    3.77282077862569    7.98193297757943
C        10.79326463368016    2.48923691318043    8.01571383883047
C        10.67296535207392    2.08463437976996    9.37118087421747
C        11.21439581672468    3.12043639959770   10.18306201573365
C        11.63619677862589    4.17051047972050    9.32412298716191
C        12.33478171977764    5.43806776348707    9.71559731418968
H        12.31218476621853    5.59014435036140   10.79314066073514
H        11.86202851652438    6.29482717010194    9.23007950893833
H        13.37961819147311    5.40618229119601    9.39810060764160
C         9.01555183202827    5.92658653415932    7.09559219693658
C         8.12106099479910    1.95366449676993   11.77885364141810
H         9.01133685097241    1.98283706339574   12.40160627897780
H         8.05982594629131    0.98473566817634   11.29127664832840
H         7.25686000214859    2.04272628574858   12.44409736842937
C         8.84834098958959    2.17994983977735    6.56105483449026
C        10.27719844369707    1.71071554588263    6.83971148023076
H        10.30414302030915    0.63549653974646    7.03535664419884
H        10.90135065827186    1.90331565289652    5.96016052714977
C         9.00956546975531    4.98542083905127   12.31561019267341
H         9.81808329539845    5.68215968600122   12.08546075367349
H         9.39641054300141    4.18781604466478   12.94434565848970
H         8.25895193675350    5.53139641665213   12.89188752318724
C        11.90629890700820    4.51642841786240    6.78068204139610
H        11.52324468484474    4.09044273922347    5.85568233896045
H        12.99843075365597    4.47683120620921    6.75430669704622
H        11.61444635022480    5.56739040927799    6.81718085805647
C        11.66181380007712    2.97973789243423   11.60877140258713
H        11.06131384880547    2.26184043628569   12.16123330604565
H        11.64467157888187    3.92996954832791   12.13719804519322
H        12.69370012261406    2.61752042507890   11.61581844026517
C         6.05568306790203    4.88304683610277    8.17969665622529
H         6.48615865575886    5.66109962098976    7.54757751997862
H         5.19563626777799    5.31606549643588    8.69660577940090
H         5.70346606464511    4.07533662194859    7.54276785139950
C        10.38261227392935    0.66747816382096    9.77974260723742
H        10.38637734672781    0.55456416003538   10.85977691964801
H        11.15995464100782    0.01224026702888    9.37754823282786
H         9.42424264305640    0.32010821954508    9.39108079048630
C         7.94077792213118    1.30159505631357    6.09345309786267
H         8.27864846216048    0.27737364869232    5.96460233653278
C         6.54487281432752    1.49697034283916    5.74626428923812
C         5.99904524039703    2.73870229556257    5.41574397828205
H         6.63267539310223    3.60786423731002    5.39402637894618
C         4.66354932032421    2.85644691708872    5.07947088197887
H         4.26523373670781    3.82694957665928    4.82040284985268
C         3.83959827466191    1.74323554322350    5.06627337197990
H         2.79622824556455    1.83984351217695    4.80478594984980
C         4.36894707397126    0.50124871904031    5.37878201436699
H         3.73707527231894   -0.37534700270172    5.36142603614867
C         5.70403861660431    0.37918402197035    5.70674689112945
H         6.10859632306750   -0.59491467023637    5.94598206295015
C         7.61149320196802    6.74259788662104   10.14210362927254
H         7.61978930927313    7.16205517297010    9.13667783840629
H         8.43819679848574    7.17846244207220   10.70084705423562
H         6.67530231854770    7.03791693989945   10.62328649465397
O         9.49235971115854    5.63515768898623    8.27139759454957
O         8.86087611999419    7.07036003335670    6.70669271774222
Ti        9.31760369660964    3.97611976403070    8.96235353758258

