58
CSD_code = CEQCOS | q = 0 | S = 0 | Stoichiometry = C18H36ClSi2Ta | MND = 8
Ta       -0.21317118277005   17.02403487576670   10.60004032057874
Si       -0.89273193114685   16.27592082856469   13.99587090420631
Si       -1.07479610825387   20.30313005766168   11.66084832892080
Cl       -1.33404271172026   15.23383181556756    9.76811798666331
C         1.19919829974298   16.87703764676679    8.22060801784155
C         1.60800365278578   17.84673514711747    9.22978580607198
C         2.62140167032435   17.17611598727849   10.03114243830865
C         2.72703962462542   15.86700819734614    9.59012511372925
C         1.85730705279967   15.68774166133334    8.46972095001523
C         0.25817556309688   17.16561348274769    7.09179853199579
H        -0.43831869732296   17.96089633228882    7.35938084361034
H        -0.31481954666867   16.27743191431255    6.82852862692832
H         0.81332041239593   17.48207524214699    6.20594002486060
C         1.66972550418532   19.32316025042053    8.93888730708730
H         1.79734098493357   19.89351658835009    9.85525362146224
H         0.75743665772096   19.65954757467549    8.45181303861624
H         2.51291301491821   19.53669118762141    8.27900284305410
C         3.47126498523549   17.86402176684619   11.05478501723500
H         2.92934893099358   18.68529583464571   11.52056289803210
H         4.36641197075133   18.27486416083808   10.58279901505311
H         3.79422813539244   17.17529406716865   11.83406864278429
C         3.60006291001151   14.79306989107558   10.15619816797023
H         3.02860787958975   13.88156620914799   10.33412390365148
H         4.04719464888496   15.10861445140761   11.09590899506066
H         4.40687520582524   14.55104011221528    9.46257358909461
C         1.64647784619378   14.40311708212199    7.73660658791721
H         2.46255129263366   13.70880022745917    7.92113385510177
H         1.57406129476628   14.57783807265605    6.66417638854883
H         0.71509606782337   13.93133534173763    8.06202617572794
C         0.48494292707485   16.46307428919887   12.69113016512296
H         1.26722880580600   17.11531457778490   13.08342182017158
H         0.95133641398065   15.48538521115049   12.53434409121878
C        -2.61890690069074   16.35914313408504   13.17922559571569
H        -3.40752748842586   16.20279489475556   13.90929144238914
H        -2.72774197746312   15.59425557757162   12.41448340208644
H        -2.78480337431735   17.32309238445031   12.70523262967047
C        -0.73148592211336   17.65765830337573   15.30753895146645
H        -1.56827252639129   17.63752659341945   15.99815310684772
H        -0.70268791203611   18.63974548254129   14.84814638797952
H         0.17556448556311   17.54019209915092   15.89222475476314
C        -0.72435166151481   14.57996666206441   14.87283029606367
H        -1.48949908689770   14.45735849678008   15.63279185953222
H         0.24003164397517   14.47617786096377   15.36092800177360
H        -0.82732094336221   13.75829318935289   14.17039440496842
C        -1.28260679751965   18.74861834049685   10.63309628949832
H        -2.21788196211173   18.81353444896479   10.07501773122393
C        -2.49441867691056   20.49562641315820   12.93753974369568
H        -2.38696394400902   21.41237988551643   13.50955345365100
H        -2.51883340212068   19.66801923530323   13.63844891625638
H        -3.45870380689956   20.53231155490359   12.44093451423365
C         0.59017789921179   20.32227713832855   12.60719574468367
H         0.49872377109258   20.84926055136855   13.55139454859472
H         1.36549099907565   20.82318850157299   12.03684932262274
H         0.92533985079180   19.31257934500235   12.81979060234733
C        -1.12146246755492   21.86506625397903   10.54612215649271
H        -0.99350879251109   22.76973411715365   11.13273357061618
H        -2.06972604456083   21.94493818358419   10.02469802867663
H        -0.33669653701596   21.84494126649791    9.79686052758105

