63
CSD_code = CEQFOW | q = 0 | S = 0 | Stoichiometry = C30H28N2O2Pt | MND = 4
Pt        4.44953467510034    4.66987906181243    5.81233179433388
O         5.02086930794070    4.80540530978246    3.86778478203953
N         3.30032940736676    3.11502495198763    5.38636365786531
C         4.56788626137054    4.12182094052614    2.87734446950054
C         2.66644429740584    2.50266143930323    6.49546382866255
C         1.36178396055227    2.86660668741029    6.83235041137965
C         3.08206920217952    2.61606518237254    4.21323287659781
H         2.41052537229588    1.75598465175772    4.15031620022929
C         0.76802023407701    2.26135356844396    7.92964873215574
H        -0.23970008625503    2.53708837961766    8.20479172440839
C         3.22581883472571    2.38164125796159    1.80174269222899
H         2.51458681371115    1.57194699498192    1.89478020491147
C         5.04618519845179    4.45217088755526    1.58267334089172
H         5.75609090025651    5.26363913056620    1.52167749762404
C         1.45630600092374    1.32291174987343    8.67728433419047
H         0.98210115246334    0.86093097098890    9.53063228324946
C         0.65910557311220    3.92419246801369    6.03668937924737
H        -0.25775796332748    4.23298808968977    6.53161252632367
H         1.31406189573593    4.79204269955190    5.92728558728663
H         0.41153165904706    3.56540295903980    5.03720122579531
C         3.38225926245843    1.57599074946623    7.25642884343095
C         4.80264151498652    1.26721338265690    6.89548021888398
H         5.28259754809987    0.68377025560295    7.67657884371928
H         4.85457168863891    0.71045382825231    5.95910350945009
H         5.35614409265192    2.20276918305890    6.75845282629395
C         2.75808444705364    0.99077722932053    8.34715300632775
H         3.30173390828193    0.27565804532999    8.94733396671764
C         4.62839883637102    3.78088748423880    0.46769672744918
H         5.01135373617544    4.06081427103809   -0.50315933225524
C         3.70741024748213    2.73160963336116    0.57000730650077
H         3.38430554451621    2.20685065144941   -0.31579863272035
C         3.62753862295004    3.05141144172772    2.97494371842420
O         3.87804100695876    4.53447900999869    7.75684248053717
N         5.59842139302385    6.22498808492518    6.23824560023052
C         4.33121046287843    5.21789750661184    8.74731504987970
C         6.23216055937283    6.83745688790727    5.12912031554961
C         7.53686686846573    6.47375116416616    4.79214218802926
C         5.81671677629031    6.72392064520346    7.41138037760199
H         6.48834983451805    7.58393036674682    7.47431526693994
C         8.13044318131660    7.07912077354959    3.69480452817494
H         9.13818985051105    6.80356280283162    3.41957895455481
C         5.67328109911273    6.95807856425228    9.82291459869535
H         6.38447800354581    7.76780310721533    9.72987019340034
C         3.85285975989097    4.88759352440777   10.04197828895735
H         3.14299390534348    4.07609122222746   10.10298115160810
C         7.44193849497324    8.01744902511808    2.94722906722236
H         7.91599953991692    8.47952266804647    2.09385168534674
C         8.23980338826714    5.41627808514684    5.58772611131185
H         9.15667900111623    5.10765242688962    5.09271734698783
H         7.58501407859412    4.54831141040365    5.69718196584306
H         8.48740794633509    5.77510419033178    6.58719315742485
C         5.51613287314797    7.76401364019126    4.36821851298415
C         4.09573236281819    8.07256030886531    4.72929362130200
H         3.61561498703087    8.65593555595193    3.94824421500205
H         4.04379452389905    8.62929735208258    5.66568348583257
H         3.54238831464384    7.13691185896286    4.86635929770214
C         6.14012712739798    8.34935332316019    3.27746110255234
H         5.59631164396283    9.06439431492076    2.67733820191931
C         4.27071802783742    5.55881813759995   11.15696664815565
H         3.88801841202252    5.27866997902383   12.12785759281753
C         5.19179223416160    6.60802158191839   11.05466842411268
H         5.51501897575951    7.13267673145292   11.94049156471605
C         5.27146322008543    6.28839221315715    8.64970045346347

