87
CSD_code = CEQGAJ | q = 0 | S = 0 | Stoichiometry = C38H44N2O2Pt | MND = 4
Pt       -0.84542673829860    4.59717134356577    5.21235516919996
O         1.18697660772720    4.65327127791773    5.16538440202928
N        -0.81810676129375    4.57354927418448    7.18816882329448
C         1.57742632741940    4.81972159227149    7.54000591772706
C         1.97901841152393    4.79089478860698    6.16965861677244
C         3.36648949535252    4.90988080834304    5.89572317871997
C         4.28832585261176    5.05490419986172    6.89474503812279
C         3.88792082251524    5.08504788353984    8.23554883010537
C         2.55938633550623    4.96568847969815    8.54009867485511
C         0.22326089678000    4.67997267564516    7.94873675659093
C        -2.07482846778959    4.37449971728445    7.81417308302994
C        -2.61819469797195    3.08439498186600    7.82786719462921
C        -3.82895808986766    2.88454694140608    8.47355252803910
C        -4.49796411483894    3.93781818609316    9.06815041600951
C        -3.97028279161729    5.21283600103128    9.00918136218689
C        -2.75237107827758    5.45403028056134    8.38834552504019
C        -1.89984977376423    1.93419436815008    7.15872558913251
C        -1.29583759341057    1.00060384969988    8.20957406126185
C        -2.82880164396301    1.17491487158353    6.21046833426871
C        -2.22489421337659    6.86489540745177    8.26410726791283
C        -3.12662216659605    7.64891407121361    7.30665913262501
C        -2.11718965981788    7.55917948616983    9.62220779738861
H         3.65899285740922    4.88232836039164    4.85644795055414
H         5.33654559466493    5.14669540791005    6.64915118417215
H         4.62276148810449    5.19919046888193    9.01741398067744
H         2.23658347608856    4.98432250824542    9.57224626853916
H         0.06156202046463    4.64703552826947    9.02910616007727
H        -4.25872812342896    1.89540973057849    8.51055159630841
H        -5.44115504018677    3.76621350767681    9.56606725858389
H        -4.51503963650911    6.03333191451631    9.45081812747361
H        -1.07786393582087    2.33986932368581    6.54912802456115
H        -2.07518626781802    0.58152885964257    8.84253008946387
H        -0.59374996233079    1.54056964799147    8.84189429930768
H        -0.76478417101479    0.18248087368541    7.72787200026850
H        -3.28854884090654    1.86963676794909    5.51122807729254
H        -3.61526604898665    0.65581314285352    6.75214266980895
H        -2.26183201823133    0.43709771887830    5.64655249365544
H        -1.22411982697333    6.83596387398099    7.82139909645826
H        -2.73103492131626    8.64990182267473    7.14822332094456
H        -4.13541666985395    7.73254344025318    7.70405336052417
H        -3.17530422941431    7.13530799858201    6.34878527893828
H        -3.09634216716518    7.69479857898005   10.07417163609636
H        -1.65968960303957    8.53901228293858    9.50322788540812
H        -1.50330309625010    6.97348182885941   10.30377501333199
O        -2.87783097258267    4.65324968336533    5.25932122938943
N        -0.87274635633211    4.57355020164511    3.23654332399785
C        -3.26827840650667    4.81969722422828    2.88469795572727
C        -3.66987261370152    4.79087187611087    4.25504537835681
C        -5.05735404396773    4.90975759431676    4.52897171482211
C        -5.97919314866508    5.05473450141233    3.52994629301234
C        -5.57878154909267    5.08492269710927    2.18914561272205
C        -4.25024060536443    4.96562736563703    1.88460142897171
C        -1.91411171989038    4.67995674039570    2.47597066175107
C         0.38398033846047    4.37450435593494    2.61054827569576
C         0.92731993606270    3.08438862011411    2.59682744134332
C         2.13808190666405    2.88452951036795    1.95114459295346
C         2.80711509611560    3.93780078188320    1.35657772569886
C         2.27946427939068    5.21282951561420    1.41558012579056
C         1.06155383630370    5.45403561606117    2.03641504689774
C         0.20894964325765    1.93418866159906    3.26594410021652
C        -0.39504046043156    1.00059722082768    2.21508920648656
C         1.13786767804178    1.17490932289646    4.21422483093228
C         0.53410854576567    6.86491054089447    2.16067841585172
C         1.43591023516834    7.64894270204467    3.11804565612053
C         0.42631417357768    7.55916735085071    0.80257109220518
H        -5.34986013208562    4.88219504051671    5.56824685773093
H        -7.02741474479906    5.14652255579107    3.77553695499219
H        -6.31362282952157    5.19905073038774    1.40727869665524
H        -3.92743432525097    4.98427809234050    0.85245481611136
H        -1.75240176532880    4.64706801878851    1.39560163434514
H         2.56782489473031    1.89538151042625    1.91411843995061
H         3.75030424439613    3.76618733663381    0.85866029849182
H         2.82424539658748    6.03332604358312    0.97397324038918
H        -0.61304988662920    2.33986662894726    3.87551883722432
H         0.38432097399674    0.58151479359406    1.58215589255391
H        -1.09710748214465    1.54056536117312    1.58275104474928
H        -0.92611104049479    0.18247972799777    2.69678166401395
H         1.59757048518471    1.86963434151954    4.91348066604053
H         1.92437283753164    0.65583212769290    3.67259331075073
H         0.57090411333941    0.43707824896608    4.77811971120275
H        -0.46663292155772    6.83599737012024    2.60346127122902
H         1.04032954535404    8.64992998421342    3.27650303693346
H         2.44467213042476    7.73257685144828    2.72057104890333
H         1.48467113374514    7.13534837751508    4.07592115961380
H         1.40543423993891    7.69472391856561    0.35051843381246
H        -0.03112784062216    8.53902538271884    0.92156608263173
H        -0.18766065511941    6.97348140018035    0.12107332133428

