63
CSD_code = CEQGIR | q = 0 | S = 0 | Stoichiometry = C34H24N2O2Pt | MND = 4
Pt       -0.06135854087189    0.00020738756474    6.97488692212404
O         1.68110212888229    0.41915508557388    7.95468627509306
N        -1.06809775615540    0.97556289029897    8.38576314588964
C         0.65506504596499    0.84439693697887   10.09425361954836
C         1.75115670302529    0.51727184431806    9.23416859184025
C         3.01861536004899    0.33026948605705    9.84365293613308
C         3.19021821213585    0.42405193437641   11.19662441325053
C         2.11252285407620    0.73747227962981   12.03249638798588
C         0.87930780779468    0.95481526768198   11.48071870175700
C        -0.64650286344415    1.13458427986869    9.60136115148500
C        -2.37196173795530    1.36637194820690    8.04336655976275
C        -3.45065941299522    0.97643787958501    8.80400699614879
C        -4.75561363954619    1.30705981221196    8.42002801082249
C        -4.98062258924231    2.01379256944517    7.27280154438443
C        -3.90269123019304    2.43852857874763    6.46720952022872
C        -4.11495093701758    3.14889084987155    5.26684804669878
C        -3.06311881597112    3.55194636169282    4.49411032346512
C        -1.74829885899530    3.28653812080444    4.90300036376014
C        -1.50600361361646    2.60731126637507    6.06508028782362
C        -2.57320555672853    2.13853877536795    6.86132579323000
H         3.84251987033155    0.09248446057172    9.18783107612195
H         4.16718277446423    0.25632723614045   11.62665182999064
H         2.25837081972906    0.81305017872824   13.09897231917387
H         0.04031726772832    1.20846181029152   12.11446087785676
H        -1.33371655989487    1.58092558411229   10.32391621445703
H        -3.29213400966476    0.36664225237816    9.68212560861589
H        -5.58194875014278    0.97792139342464    9.03265593876846
H        -5.98736623259272    2.25055299655094    6.96021100641683
H        -5.13119760243298    3.36318212458397    4.96776591091277
H        -3.23558279794046    4.08326781116081    3.56975308053314
H        -0.92467885358124    3.62738565188670    4.29321361945620
H        -0.48092382625022    2.42953936315007    6.38013052723765
O        -1.80386827573212   -0.42056002455993    5.99605876842686
N         0.94523885025156   -0.97355137815570    5.56266806519291
C        -0.77856506640665   -0.83985028139188    3.85502711803229
C        -1.87464650577083   -0.51623109379189    4.71644575648301
C        -3.14280304602435   -0.32991204162079    4.10826772989226
C        -3.31510861620552   -0.42078236251451    2.75520026318340
C        -2.23741208101004   -0.73054372392075    1.91796704890715
C        -1.00351449873283   -0.94737563069274    2.46845989636023
C         0.52350822623921   -1.12992861469488    4.34678210841249
C         2.24907055867731   -1.36497874276348    5.90435297312173
C         3.32811171557741   -0.97342775789028    5.14506301969131
C         4.63282755953030   -1.30537899232564    5.52876858233464
C         4.85721074128494   -2.01522305496766    6.67420549588343
C         3.77885623921123   -2.44188828352367    7.47822274595424
C         3.99030063998848   -3.15628176294238    8.67632287857572
C         2.93794123759845   -3.56160687323904    9.44717975740675
C         1.62340669401310   -3.29410716474412    9.03874586685632
C         1.38190495296493   -2.61077542197609    7.87890540054519
C         2.44965611770416   -2.14017858431125    7.08451074875607
H        -3.96661447141491   -0.09494540990654    4.76520473743025
H        -4.29258937322387   -0.25346940489706    2.32618849276141
H        -2.38380939602149   -0.80379703005496    0.85139684325597
H        -0.16460477209805   -1.19842482363324    1.83358100552394
H         1.21083117369352   -1.57416730926676    3.62303157884543
H         3.17011166548700   -0.36146133621062    4.26836412455172
H         5.45951887357187   -0.97475135622162    4.91743441292581
H         5.86377048646915   -2.25317534488517    6.98648898839966
H         5.00631610324611   -3.37201217482499    8.97515952999266
H         3.10977674108626   -4.09629538508397   10.36972713103452
H         0.79936663964279   -3.63661291711805    9.64704399644307
H         0.35706622745234   -2.43125013549921    7.56414733384533

