87
CSD_code = CEQHIQ | q = 0 | S = 0 | Stoichiometry = C38H43I2N2ORh | MND = 5
I         0.35846292040480   16.76810789057240   11.24850020593821
I         3.94804809989337   16.68601759312002   12.40419923655700
Rh        2.70618761987925   17.10451828053078   10.13633795811179
O         3.02409681786855   19.63664335282973    9.12980427728393
N         1.92195541222987   17.09553583472212    8.25310270563513
N         4.46093499836430   17.12067617999562    9.07542144014915
C         2.84857889741927   17.22466811126772    7.35596759372416
C         2.84701095894439   17.19658955808205    5.90145580762908
C         1.88886412140091   17.11285320517380    4.91933006056383
H         0.83729282678816   17.04462090620187    5.15186844071434
C         2.30910109887831   17.10294383835280    3.57652314372416
H         1.55055442197389   17.04590946967821    2.80968973727973
C         3.63152655524155   17.15657670783904    3.20823236958025
H         3.90666944957129   17.14257127019667    2.16399081340171
C         4.64462207561020   17.21391422163458    4.19210048337117
C         6.04383444064723   17.22516101570600    3.99302788450600
H         6.43612348389221   17.21467771159112    2.98686132040273
C         6.89798317544220   17.23432176956814    5.06902399647761
H         7.96404586858748   17.23079480846600    4.89526168879552
C         6.44720409369394   17.24061895924356    6.40184022836741
H         7.16207271107873   17.22322599816061    7.21010419319845
C         5.09218039459507   17.25559497372133    6.63105075174021
C         4.21188230347479   17.23918047653446    5.52015795359490
C         4.23461031784159   17.25086890160050    7.80648297871082
C         0.59637948383209   16.82708530612641    7.83653946635453
C        -0.25880339331633   17.86328000597901    7.44706954929996
C        -1.54208455669694   17.53121597129336    7.03467081806010
H        -2.22206810709564   18.31623493117575    6.74314413521963
C        -1.96320891328833   16.21720746864848    6.99408389459511
H        -2.96293523583895   15.97999847293272    6.66329019369790
C        -1.10981895286523   15.20564452041274    7.39170801101281
H        -1.45038097329277   14.18335324782368    7.36765248520892
C         0.17336965070565   15.49002451519700    7.83006327669993
C         0.15858610403199   19.31291170560013    7.51656563174945
H         1.21314478600318   19.37390944083728    7.79523450692067
C         0.00465552254853   20.02035335003139    6.16887814722096
H         0.33490274632876   21.05262172925428    6.26009246156245
H        -1.03123384369810   20.02252689206578    5.83924262030217
H         0.61078398133722   19.53554974469201    5.40545799219070
C        -0.66269192221853   20.02275603801506    8.59740176592744
H        -0.27135021420445   21.02287707862506    8.76971527764283
H        -0.62551535365748   19.46383302059768    9.52973197644089
H        -1.70447368364130   20.10553557181696    8.29795867890589
C         1.10844491432593   14.38267038752453    8.26183559310595
H         1.89470623700876   14.81625864636770    8.90755790314676
C         1.78472482998408   13.76890116805396    7.03310200724260
H         2.44126187501492   12.95417413276169    7.33094104534938
H         2.37507662661716   14.50879469109594    6.49313802467471
H         1.03291742647796   13.37302853430910    6.35304395052563
C         0.40479082948855   13.30564785585688    9.08589704483589
H         1.14363162148609   12.63950910913487    9.52737620924999
H        -0.26024225958813   12.70596398972374    8.46999790331124
H        -0.17299906386121   13.75839836089822    9.88821312662681
C         5.78541222610957   16.90954178019419    9.52489213142998
C         6.65657323977401   17.98614539009732    9.72608382947373
C         7.93726798025050   17.71229350918846   10.18611155719668
H         8.61797043470186   18.52875146417277   10.36881515571486
C         8.35403135782842   16.41655889728124   10.41657510683771
H         9.35619247114483   16.22590997648202   10.76941498155852
C         7.48484908525761   15.36357573374070   10.20497858699377
H         7.81702661963391   14.35510408888440   10.39001360493824
C         6.18869157912652   15.58893602351344    9.77036295277250
C         5.24219970111874   14.43487292232049    9.52698760371346
H         4.20603391067953   14.81512371495893    9.56146422058523
C         5.49116517065363   13.85305380244138    8.13256719125387
H         4.83709081648168   13.00198107299409    7.95538673182870
H         6.52268301442408   13.51647837050662    8.04846518930293
H         5.31144495160019   14.59448624364109    7.35458481100884
C         5.35261664002290   13.34493397873370   10.59202543925568
H         4.53030098864357   12.64026479438619   10.48319786994658
H         5.30383763880000   13.77933492147395   11.58763805322274
H         6.28238072758141   12.79022020064939   10.49688924385036
C         6.22152739502496   19.41590576427291    9.50931290495154
H         5.25405941436888   19.42853729925745    9.00116946614329
C         6.05477719034075   20.10024714589988   10.86908231111026
H         5.65817366353079   21.10447543683377   10.73761735025042
H         7.00947345701433   20.16683806083791   11.38505077938615
H         5.37109286855890   19.53429067556664   11.49768189861717
C         7.20134865414100   20.19273358768954    8.62819874071150
H         6.80871479728721   21.18970332155341    8.44111445628359
H         7.33781747826223   19.69560489847573    7.66933059753114
H         8.17160689690843   20.29649581071225    9.10677426079594
C         2.67795463759487   19.09687271328141   10.14080929068059
C         2.20258359442742   19.81232890515552   11.36881714403797
H         2.48469032419852   19.31995618735660   12.29615014273653
H         1.11282855855666   19.85725336477224   11.33685590319503
H         2.59676929040961   20.82853302111164   11.34804152621044

