48
CSD_code = CEQHAH | q = 0 | S = 0 | Stoichiometry = C15H27MoNO2Si2 | MND = 9
Mo        0.93894673828866    1.90301612768803    4.63824454463862
Si        0.94049578072049    4.21874600426035    3.70495694621350
Si        2.06657269743160    2.01788087015559    2.41129280342461
N         2.37029989637956    3.94713663356981    2.40856814520498
C        -0.94540495275592    2.27961913007345    4.55749429135225
O        -2.08786946146437    2.44247912811978    4.53846012969477
C        -0.02912503719808    0.60365732535365    3.59963954250198
O        -0.64538231223809   -0.18578435254327    3.02571377137010
C         1.40560310321627    5.77148700912538    4.74491686441554
C        -0.54794436228815    4.84734411769795    2.66856397193841
C         3.69875993104467    1.04468088438480    2.10478895328555
C         1.15853577609531    1.71477610448056    0.74730342790019
C         3.65393535659429    4.29479665722768    3.01453044926197
C         4.87995780693460    4.14395160967559    2.11875847646230
C         2.19412830350945    4.59995270956269    1.11419570873564
C         2.32588964703061    6.12004620292347    1.12560590179608
C         2.52294849170460    2.59971363611894    6.22684866397233
C         3.01372312909505    1.40317277205843    5.65717959460538
C         2.10668934177254    0.37013348913760    5.96476403632339
C         1.05588684968616    0.92183871719081    6.73397230656277
C         1.31351668717979    2.30328857231853    6.89335060421402
H        -0.38166384682319    5.77469964021866    2.13040048392333
H        -0.88295768099637    4.09542120184624    1.96081818696003
H        -1.37342268714476    5.01671171540830    3.35220226082966
H         2.30476122885230    5.63622337486066    5.33625817118562
H         0.59341201669386    5.96087081962010    5.43946661095047
H         1.53277545089602    6.67083289322227    4.14899994723995
H         0.97891502418014    0.64866723764972    0.65481817547530
H         1.72160483537688    2.02530572968472   -0.12803462210555
H         0.18688919380786    2.19728835134001    0.71972737766070
H         4.07449666774821    1.14944552589420    1.09050525145452
H         4.49820166883728    1.29325641101260    2.79384213102072
H         3.46903062529079   -0.00687909408824    2.24871550599782
H         3.61538781447587    5.32623227960840    3.37207740884818
H         3.77287479495242    3.64896711464378    3.88681378354745
H         5.77452368386720    4.19791031293532    2.73559393409112
H         4.87690512482801    3.19287125260742    1.60094785943119
H         4.94016342528683    4.93822669844389    1.37949195257348
H         1.19664107242516    4.34368743000701    0.76431404876211
H         2.91269918851923    4.18622600315176    0.40102017774357
H         2.03710145662683    6.50524914165948    0.15030330584512
H         3.34368250395694    6.44366966739796    1.32460314154147
H         1.67383591450134    6.55836024168133    1.87327486681199
H         0.77421613586686    2.97572980422311    7.54828852891741
H         0.28614858933767    0.35872948878807    7.24701818287128
H         3.99772909355999    1.26516814375674    5.22665991049636
H         3.08052053179407    3.52345849945700    6.32480008370594
H         2.26516476289537   -0.68446323359024    5.77752420059980

