53
CSD_code = CEQHUB | q = 0 | S = 0 | Stoichiometry = C23H26BrNOPd | MND = 5
Pd        8.69346428969559   -0.15450467698044   -0.89938292438571
Br        8.91937761635392    1.75953358940641    0.52275456014354
N         9.77891413050939    1.08215122475411   -2.59905252636904
H        10.53030538145250    1.45490008467163   -2.00686449101760
O         9.55568614301403   -1.55667314481397    1.24061377348085
C         8.55726846613705   -1.38065916709294    0.60800705296855
C         7.27771395018938   -2.09359169562970    0.67750973736031
C         6.52240381935987   -2.03253425075412   -0.43804023795596
C         7.02433649007567   -1.25790158345841   -1.60617279971325
C         8.14974463467835   -1.65664798192084   -2.33957414201356
C         6.96775524454392   -2.87093829593350    1.92148420078224
H         7.81943014532311   -2.83153502540623    2.59605822242298
H         6.74998652575825   -3.91329195862173    1.68937254309517
H         6.10256308946737   -2.44470036216594    2.42741826447512
C         5.20072276261356   -2.71554661741185   -0.58586976426002
H         5.04009792253316   -3.03151148791872   -1.61447439979984
H         4.39734675488913   -2.03243839820577   -0.30920985154221
H         5.14015705439726   -3.58291436059276    0.06641907144116
C         6.04574027321461   -0.23659426859646   -2.15251767553996
H         5.70977959014433    0.42471341676362   -1.34726091667359
H         5.16533648699030   -0.72671370333858   -2.57000622576287
H         6.50410324926540    0.36567681398969   -2.93831224552204
C         8.90779616122361   -2.94389979894714   -2.05302545799631
H         9.98216243626580   -2.75921972687166   -1.97376261578464
H         8.75710331394446   -3.64264756294800   -2.87859749295830
H         8.57409644154508   -3.41668701119447   -1.13043493615951
C        10.36131273483959    0.12237910409562   -3.54347602736879
H        10.90392953982241   -0.63370837316116   -2.95696409960828
H        11.08085609223016    0.61239298971688   -4.21817988689472
C         8.25127670481870   -1.27909521703597   -3.78877911450175
C         9.28104672327460   -0.53163530926475   -4.36810265366665
C         9.29159666421882   -0.34830298638021   -5.74664385992311
H        10.09232204002707    0.22675257966177   -6.18958728394697
C         8.31027859961550   -0.88767335827290   -6.55577660228481
H         8.34232941462608   -0.73157541894096   -7.62340751073248
C         7.28909838656147   -1.62756530767660   -5.98559160384865
H         6.51443842370603   -2.05708413894816   -6.60289942910083
C         7.27031276373388   -1.82246848880285   -4.61885587918593
H         6.48427583206616   -2.41659334827718   -4.17461807646958
C         9.12781440644926    2.23183271815516   -3.24097505111657
H         8.62922387157825    2.80003006178875   -2.44611370741800
H         8.37087498271091    1.85808657062676   -3.93758798259905
C        10.11138272748670    3.11744475892127   -3.96214322561944
C        10.11418396262552    3.21607721740993   -5.34656652601749
H         9.36726756607636    2.68540983509793   -5.92102408882235
C        11.05830028153195    3.99599620028962   -5.99237746087467
H        11.05103180394821    4.06634653575911   -7.07045742059977
C        12.01032617685206    4.68208529441445   -5.25851576631263
H        12.74847749096417    5.28817477657171   -5.76248665843200
C        12.00960674208957    4.59472604605288   -3.87593066176062
H        12.74448552330406    5.13608548275230   -3.29894301308530
C        11.06542202892699    3.81713129307472   -3.23103053195056
H        11.05713614233176    3.76252643158683   -2.15094460057629

