66
CSD_code = CEQJEN | q = 0 | S = 0 | Stoichiometry = C29H31Cl2O2PPt | MND = 5
Pt        8.07969009407896   12.42460768518050   18.36298717355629
Cl       10.43161039098865   12.49150311110471   18.25414470396004
Cl        7.98033053200359   11.67798466938615   16.24195820137331
P         3.90633534379391   10.23361308576790   17.48683018002315
O         3.73646435262564    8.79850622519804   20.11643108753643
O         2.72447426432757   10.56257614800575   21.06241584729041
C         6.02415301576888   12.38909977835098   18.50452798940246
H         5.58365733991596   12.14300913379932   17.51695480093046
C         5.56971650508665   11.28051594645066   19.44926001654798
H         6.12506169590688   10.36437137775117   19.20872910139226
C         5.80472014017552   11.58231083174463   20.92756125831057
H         5.28471372769942   12.49475914441692   21.21193495409528
H         5.38198234046612   10.77252846696578   21.53134793791111
C         7.29584953883008   11.65716533569347   21.27334568529763
H         7.38710920439081   11.94914121383849   22.32655012316796
H         7.71030796822018   10.64720248344628   21.18966220201178
C         8.19544617563924   12.57524326716139   20.47643971450101
H         9.24171780813023   12.41960621836836   20.73896041200378
C         7.88745522181815   13.82212551468031   19.92809494379062
H         8.71238738275478   14.52679759382565   19.82452808639417
C         6.50629102494098   14.44587573205697   19.95186272342604
H         6.59431362673684   15.51286153673964   19.74008235853447
H         6.09334175661920   14.35714641172008   20.95942032684295
C         5.57042031977367   13.80006580299942   18.90653234973965
H         5.59958220065276   14.41492705890564   18.00369506878711
H         4.53868755748761   13.81974726257881   19.28491577981067
C         4.06235090415007   10.97757552683626   19.17185447581382
H         3.48476987658023   11.90582344137377   19.22874778271127
C         3.50217991319550    9.98252757083128   20.14868834385963
C         2.19247565142920    9.70730401473248   22.06777917527179
H         1.55201629139684   10.32899185677621   22.68720482886135
H         2.99922166069208    9.27617435523688   22.66302325675333
H         1.62175009832467    8.89794799979357   21.60814251475038
C         2.49579188696149    9.09356402096384   17.59442439456038
C         2.58354818372782    7.76272187608821   17.21251472889486
H         3.52207902177395    7.36519740875916   16.85428317776639
C         1.46750541460050    6.94868963219811   17.30827283145226
H         1.53603794137623    5.91121652160647   17.01827927244330
C         0.27008852133089    7.45982196651153   17.77906491324254
H        -0.59583867671760    6.82017775331281   17.85815459478700
C         0.17907055729813    8.79327365308292   18.14913899513132
H        -0.75626782149525    9.19248197050591   18.51215386533878
C         1.28760541379551    9.61218890132881   18.05371638424737
H         1.22274635500571   10.65541731019397   18.33598279834870
C         5.34926088527099    9.31526491851362   16.93897635675289
C         5.97698561659494    9.61887874783013   15.73521154752703
H         5.63447018774706   10.43844934273162   15.12397144194461
C         7.06347294861985    8.85937352550713   15.33154396670061
H         7.55880187734180    9.10152229372122   14.40554587469201
C         7.53826081305216    7.83824645575118   16.13286020138733
H         8.40218216585623    7.26948842173241   15.82467841365345
C         6.92034685929986    7.55039526439957   17.34359887572493
H         7.30150718473262    6.76018717768385   17.97285782212500
C         5.82234964748564    8.27948065051303   17.75111215800012
H         5.32908122358824    8.05959652550914   18.68772051676624
C         3.32950052091887   11.39355634939041   16.22501380587318
C         2.99743462776977   10.82006656405917   14.99786145261900
H         3.10154323216051    9.75122989864201   14.86270743869623
C         2.54190796257852   11.61647866758253   13.96530105311853
H         2.29630178807493   11.17302136603882   13.01239682668969
C         2.40434034803503   12.98314176051681   14.15464109455991
H         2.05353511614173   13.60623882824977   13.34633902310270
C         2.71726115452994   13.54946936795908   15.37890436491075
H         2.60824157747536   14.61302018741471   15.52662653907934
C         3.18055660246436   12.75984293197266   16.41742120995999
H         3.43780693797783   13.21486393796704   17.36011065522415

