49
CSD_code = CEQLAL | q = 0 | S = 0 | Stoichiometry = C21H21Cl2N4Rh | MND = 6
Rh       -2.29524083618462    6.40932514772203    2.37870170690157
Cl       -2.39742879331368    8.21635728425296    3.84522271850760
Cl       -2.15031619563796    4.53296579828327    1.01833838222361
N        -1.66675285796626    5.07860751249507    4.19506836813988
N        -1.80535163644859    2.99986091459729    5.28956075071709
N        -4.19640116082797    5.94453248863754    2.73082507400877
N        -0.38647009954558    6.84598548005520    2.05847177087110
C        -2.85006972931988    7.56648044809218    0.81953522305005
C        -2.17205106653011    7.49989486058426   -0.39365515282628
H        -1.34535333734148    6.81466819726060   -0.52954693963165
C        -2.55560503162187    8.29325962388241   -1.46346416636916
H        -2.01815205047930    8.21977609297836   -2.39857806942403
C        -3.61740193489691    9.17061315289469   -1.33895895792678
H        -3.91402372192239    9.79026067829490   -2.17299579493682
C        -4.29601587991596    9.24669217985014   -0.13641101246182
H        -5.12589371852826    9.93016698018189   -0.02282744538091
C        -3.91893759027672    8.44987701376468    0.93323295593069
H        -4.46434196163305    8.54413215273742    1.86353730081543
C        -5.01203375275458    5.53308384260776    1.75462263186732
H        -4.60530473078950    5.50771051196502    0.75315915201008
C        -6.31753430070027    5.13973922158712    1.98627288989266
H        -6.92762160236702    4.81308276153574    1.15929809519642
C        -6.81890580371508    5.17415991301892    3.27687977617369
H        -7.83358798319792    4.87380528174790    3.48924911354514
C        -5.97846556374527    5.61361986633176    4.28697454988358
H        -6.31717319131570    5.67220894323844    5.30942149472931
C        -4.68458427821655    5.98637374010181    3.97404884251235
H        -4.02517653296778    6.35955134527506    4.74715765791432
C         0.02743445183379    8.10215913633931    1.86235823442280
H        -0.73091932782213    8.87276255127946    1.84632814273602
C         1.35981377759228    8.43368418924245    1.69628998570049
H         1.63490484176388    9.46535282423107    1.54509144071869
C         2.31754776151135    7.43340760702407    1.72444122429668
H         3.36487953445129    7.66054639928790    1.59606667098325
C         1.88790868653367    6.13013246179701    1.91671773398592
H         2.58721977443280    5.30909256348031    1.93827105932103
C         0.53774408640705    5.88081244831093    2.07899595635430
H         0.18291273692553    4.86588321370686    2.20444213084475
C        -2.01162681635427    3.79779194810429    4.26485675199242
H        -2.49436529545551    3.36322477897547    3.39727018917686
C        -1.18765368185159    3.49453214094230    6.35748889215412
C        -0.77129637253918    4.82602118094831    6.37426343845888
H        -0.26322448444825    5.24582690697077    7.22755976586789
C        -1.04238346498179    5.59082322211939    5.25580006596692
H        -0.77906660374682    6.64013975902695    5.20309625931745
C        -0.97400230011438    2.57831457038146    7.51357639711429
H         0.05692291448338    2.63150338425384    7.85735172236410
H        -1.21586968846926    1.56037132736726    7.22308474819173
H        -1.61938518795037    2.87302595224869    8.34040827396981

