103
CSD_code = CEQNOD | q = 0 | S = 0 | Stoichiometry = C36H57N7Si2Zr | MND = 5
Zr        9.05055712131534    1.91505483982478    3.88161796596692
Si       10.94879116596246    0.09034626082455    5.83384395288797
Si        8.11742013982923    2.34460122699259    0.68757844352593
N        10.30551587776763    0.29525845742595    4.27247724319013
N         8.38203586800828    1.30470610595045    2.01673068286165
N         7.73666279153442    0.32923619448165    4.91114249393656
N         8.16922082679395    3.53881903000538    4.88290381550903
N         9.11936272994577    4.49144725178535    5.14815986262851
N        10.23710315135086    4.41291399222874    4.61069635756333
N        10.49946841982493    3.34793463678132    3.79566019085504
C        10.02936476182653   -0.78790205722866    3.38178934166319
H        10.41120309576879   -1.73813672168463    3.78320118291797
H        10.52369909720607   -0.62727137273550    2.40829226334061
C         8.50606001740064   -1.03569366896316    3.05113104497172
C         8.00082889455552   -0.08089862139874    1.92442408829341
H         8.37663670651204   -0.50953177394031    0.98306442177369
H         6.89673458703880   -0.18786591868935    1.88772340760862
C         8.41139790124667   -2.45840259965309    2.47849518394399
H         8.71008577619446   -3.20371581606617    3.21219512429286
H         9.08406660449998   -2.54757957254800    1.62798466068847
H         7.40284399848374   -2.67657353360056    2.13204436855316
C         7.69177282993454   -0.87306040886592    4.30515018393849
C         6.95585973557521   -1.92175408563411    4.86247724728429
H         6.89863409718443   -2.87566927132530    4.36768170367224
C         6.27420596929773   -1.74168339606307    6.05042032111785
H         5.68691527491683   -2.54381987439997    6.47112889009457
C         6.37670598953373   -0.51735993658743    6.69579069552015
H         5.88856121049497   -0.33306679128120    7.63873284093106
C         7.11945590791965    0.47627354447184    6.09008479049878
H         7.21282004515089    1.44231576340799    6.57362725733943
C        10.11814013589417   -1.31636872295367    6.86891957607680
H         9.12964724083145   -1.03235673322896    7.21909831743113
H        10.70449478877881   -1.58576006727893    7.74025382200900
H        10.00330093531842   -2.21388062918601    6.26780358234072
C        10.53991781614672    1.76344351988974    6.67419407331713
H        11.17842265756433    2.55634464206948    6.28785971019502
H        10.68150447097985    1.72536625101043    7.74985954298413
H         9.49596956276467    2.02958130614722    6.47941397052608
C        12.86299426104555   -0.22987124375781    5.89964458685723
C        13.39784699727676   -0.06975524059595    7.32325378822033
H        12.92567706493737   -0.77463051008948    8.00326196201643
H        13.21449857439605    0.93651577946482    7.69014806381721
H        14.47280835293630   -0.24839181870641    7.34573958872751
C        13.58561791984379    0.76768136360751    4.99395036605941
H        14.66159509246560    0.59328646012170    5.01171898166515
H        13.40335950785806    1.79077266348188    5.31416936005029
H        13.23861433796459    0.67342046385210    3.96840838369451
C        13.18048201034368   -1.64404828992164    5.41124744485335
H        12.83671666834294   -1.77864403317914    4.38815680503035
H        12.69715329017378   -2.39015543408581    6.03781263214285
H        14.25503306419890   -1.82539019613590    5.43406624689323
C         6.25938527603396    2.51725407882923    0.17219718603064
H         5.75194044477451    1.55752300140854    0.21070816273253
H         6.15864515093784    2.89308669226319   -0.84039741188427
H         5.71486803025042    3.19879443351492    0.81641618326985
C         8.71636107591322    4.04040872756952    1.34107408655916
H         8.36705060153343    4.20912214031716    2.36385878491424
H         8.33439098434884    4.84706550777757    0.72429949157154
H         9.80166939764625    4.11329971687938    1.33663568724964
C         9.02186432594158    1.89536751445040   -0.98540057525260
C        10.44976431277587    1.41187093689327   -0.72929596576949
H        10.93151875186751    1.13221481826407   -1.66731211412121
H        10.45347013513223    0.54142969564622   -0.07544692337244
H        11.04140907935868    2.19612919896983   -0.26486917167931
C         8.27259755929721    0.79679044665142   -1.74429746937499
H         7.26078547924918    1.10746971590036   -1.98750003051752
H         8.21192942830655   -0.11572971958012   -1.15543668668273
H         8.78697283795846    0.56152938105261   -2.67670239044819
C         9.09602278314736    3.13160425330640   -1.88467446776663
H         9.66694809937241    3.92128540802480   -1.40444836334188
H         8.10328555326947    3.51470434201053   -2.10618959249185
H         9.58186322205718    2.88584555129080   -2.82908998371676
C         7.01554777463496    3.60182506768412    5.65144514462385
C         5.82919584032055    3.10040109429484    5.06577872133748
C         4.66574087165866    3.00588185840173    5.80776321704746
H         3.77327252597315    2.61513510775690    5.33743956092392
C         4.61376616559216    3.42051791950994    7.13028574372529
C         5.76575903345557    3.96161547481601    7.68434943825143
H         5.73333348263147    4.31369481165402    8.70659248931369
C         6.95749443641401    4.07090490064210    6.98577151037672
C         5.82670494866727    2.73119981681178    3.60919726102550
H         6.00790332432813    3.63107989082190    3.01646858931601
H         4.85923011721426    2.31950356363988    3.32569277624553
H         6.62029720827696    2.00746094000862    3.36372649269157
C         3.35866041987537    3.29840630302722    7.94203946952539
H         2.50970786213954    3.05426215232563    7.30804333295202
H         3.14747177054521    4.22945002333234    8.46520107457473
H         3.46366239950916    2.51302364945152    8.69195226134330
C         8.14095724893882    4.67710792244561    7.68090623193880
H         7.93726010985333    4.77989667376189    8.74525845177887
H         8.35746397012751    5.65911158962244    7.26604674150559
H         9.03583824635714    4.07228711532106    7.54750771496923
C        11.73819201176163    3.30047947172701    3.21045282311586
C        12.76805388884696    4.21706602911527    3.46769245312619
H        12.58567720027602    5.01477601216637    4.17161184895731
C        13.98120508978975    4.09045668969779    2.82260282360820
H        14.76967092857750    4.80014120433417    3.02951693507820
C        14.19966588024390    3.06695806495843    1.91296050002226
H        15.15203924386467    2.97729893374387    1.41279992209491
C        13.18299912755483    2.16009907271059    1.64602432083909
H        13.34910402957479    1.36487998118639    0.93205978230924
C        11.96354921440058    2.26851708485829    2.28302421631405
H        11.14024775626682    1.58011432471305    2.08862888286418

