64
CSD_code = CEQPEV | q = 0 | S = 0 | Stoichiometry = C28H34FeO | MND = 9
Fe        8.23336565143517    7.57255736861347   12.62004463169500
O         9.92072777127873    8.98749077302582   14.47452276432888
C         6.30059390793837    7.87030843718466   13.41018147576145
H         5.73792065826409    7.49041185429378   12.56557691458392
H         5.87701642356871    8.76256366531076   13.84649712941071
C         6.94942219472602    6.96892868928237   14.26536015927430
C         7.50726291978736    5.81413236795158   13.68146343168693
H         6.96149927403982    5.39453624916763   12.83687434443293
C         8.30343997019094    4.83324883253771   14.40767431933075
C         8.05015282417996    3.46989459118751   14.24748535800590
H         7.25024150913813    3.15461915462022   13.59189972062381
C         8.79674384425901    2.52487312321478   14.92438261527988
H         8.58075789443712    1.47430494137691   14.79321459528118
C         9.82151715953443    2.91991673774471   15.76807494612359
H        10.40522515487026    2.18101138345751   16.29666819203274
C        10.10398781035458    4.26878731891250   15.91654829107480
H        10.91732923602310    4.58191735467252   16.55488899983063
C         9.35866136643756    5.21491147670432   15.24100817641219
H         9.61117739892115    6.26197162669995   15.31321767452775
C         7.11103745975182    7.32426288672300   15.71999247882235
H         7.78561362715796    8.16464991022150   15.86178264678371
H         7.48078548361232    6.47862823848414   16.29268616286648
H         6.13841532661781    7.61367533276593   16.11654116441886
C         8.30559004736068    8.82203266594855   10.85058048407888
C         9.58307712482343    8.26343411982207   11.11725362455870
H        10.46335923499393    8.84120023804009   11.33698217708272
C         9.55815640659644    6.85200448548950   11.01058587170634
C         8.24855297055481    6.51248328504136   10.50583804274022
C         7.47929749437319    7.72865136067796   10.39789140991575
C         6.16930190463797    7.67073421090526    9.89482313985972
H         5.57901937955177    8.56858453017080    9.78952919200444
C         5.63531970928028    6.46159888611540    9.52591913815743
H         4.62884837690807    6.41448729598734    9.13600580183708
C         6.38182227193864    5.28059439187445    9.63180833966718
H         5.93554693919220    4.34718730843126    9.32046574194032
C         7.66942358792327    5.29707449019985   10.10659094890929
H         8.22958834138443    4.37589983446242   10.16066448234473
C         8.01227792384074   10.30126044012847   10.73353648782386
C         9.19390826817573   11.12727864292836   11.25174616178509
H         9.43512428991932   10.84075336278572   12.27237333682840
H         8.93465600806398   12.18359125888219   11.24407855460325
H        10.07340102249454   10.99322164761129   10.62697143570435
C         7.77494790527651   10.65419965148951    9.25795045137331
H         8.63984399113898   10.37297463101118    8.66063005577624
H         7.61457695570185   11.72488976128799    9.14986422554415
H         6.90744600483007   10.13491840768923    8.86194339359382
C         6.78815132801373   10.66938907712212   11.57753225534922
H         5.91816686205814   10.08527300255235   11.29861439241874
H         6.54870126259058   11.72360170391851   11.45594779393180
H         7.00828919911975   10.47481276732992   12.62405601727880
C        10.78196987692836    5.96448231804106   11.04562972180988
C        11.10217935512870    5.51463893602863    9.61193582910514
H        12.01265609477086    4.91917898415268    9.60014823788678
H        11.24666928959921    6.37989222898200    8.96801220659793
H        10.29403753971546    4.91691888589020    9.19993661351343
C        10.55642581869890    4.74861935883814   11.94739672594737
H        11.41044248038316    4.07666985105926   11.89377746534440
H         9.66891811315117    4.19149030792984   11.66899121651198
H        10.43805679003755    5.07714763037628   12.97550096339615
C        11.98360215643730    6.73235921746547   11.60614133967394
H        11.73840779138982    7.15347427900682   12.57871161039960
H        12.28869383984132    7.53351372694521   10.93755292277532
H        12.82707762744418    6.05650174963125   11.72711685869857
C         9.22327354921285    8.39737875359840   13.76827913893914

