97
CSD_code = CEQSAU | q = 0 | S = 0 | Stoichiometry = C42H48Cl2FeN4 | MND = 4
Fe        4.40486081902102    2.74369184312949    4.91623691603685
Cl        5.02982211551579    1.78897809989098    3.09058078476588
Cl        2.82344459155243    2.02585439962115    5.97178543570278
N         6.88417264654155    2.60555325978953    6.07431106307192
N         2.12798231888842    4.18218067898686    3.38323269261430
N         2.40591774250714    5.39207933077794    5.11815155509376
N         7.35388445967592    3.91391058400497    4.44750059735385
C         6.30814230429011    3.32348884281144    5.07041907496105
C         8.54201707055307    3.57528601974233    5.05055366444195
C         8.24589659445754    2.74652538647327    6.07461463856275
C         7.31018891363325    4.88928157217789    3.41799645294443
C         7.54346037110175    4.53557029724659    2.08983941608055
C         7.52664429814969    5.54438345868236    1.13574614811444
C         7.30598912879766    6.87007157712488    1.47639891946971
C         7.12517205399556    7.19585872703761    2.81372163774941
C         7.13350437305032    6.22014197397562    3.79717573495767
C         7.80690401367296    3.11721627574083    1.71135021084604
C         7.25748378481405    7.93446872197101    0.42260632859152
C         6.99780602868061    6.56547812232769    5.24898088181962
C         6.14565125248078    1.79787477161228    6.98254129318416
C         6.09891186944559    0.41491885643636    6.79174792431286
C         5.37846407876813   -0.34631687729973    7.70190062864913
C         4.72071743439419    0.23422203341185    8.77544158661461
C         4.79045820558271    1.61212598069311    8.94253673176824
C         5.49363418082815    2.41039907227812    8.05728332031684
C         6.78478209164240   -0.21046025913315    5.61687243161554
C         3.91939928168211   -0.59639726435703    9.72997996262708
C         5.54305548936187    3.90108719376849    8.20938655435639
C         3.01783390434219    4.43698330450739    4.37268394790721
C         1.00100735985448    4.95224454625030    3.50527563870386
C         1.17626844635720    5.72030827705190    4.60102298092299
C         2.32424292579909    3.30744974846083    2.28229189942050
C         1.55828645721662    2.14872632194341    2.16689919098223
C         1.76138351597582    1.33428878464767    1.06196113668094
C         2.69187787788943    1.65202382852388    0.08545160179824
C         3.42639918731301    2.82180300346234    0.21796486185566
C         3.25822369374411    3.65928817861699    1.30650675504971
C         0.54591670273210    1.78263116715705    3.20981989602134
C         2.92696073970273    0.73720439218156   -1.07769704871447
C         4.07060933565989    4.90740149711014    1.45845567827206
C         2.96740268426473    6.14785215355996    6.17944320126957
C         3.73136261676936    7.26824648378131    5.84465083190056
C         4.25398846582653    8.04722959941169    6.86427814019150
C         4.02160152526245    7.74204398652794    8.19833367669724
C         3.21966321803759    6.65270756691274    8.50074215915932
C         2.66987745597366    5.85105349154418    7.50889738805382
C         3.93546620008681    7.62901918061786    4.40519806886274
C         4.62574909993372    8.57847564439639    9.28476167596739
C         1.75197469903484    4.72433551474060    7.85705009860862
H         5.05795875815589    4.21065168773159    9.13024603510404
H         9.48075306846130    3.95609117920677    4.70299845391841
H         8.87241661303635    2.26033238511464    6.79471188806919
H         6.93511412640747    2.50650665158852    1.95376977048651
H         6.62242360993505   -1.28469253958657    5.60551021848278
H         7.69795672916938    5.28540758652886    0.10064890578406
H         1.70981507714416    4.57984036218597    8.93322513264134
H         6.98805828906044    8.23015787534457    3.09449053912343
H         8.65333507866457    2.71845207863038    2.26910266174022
H         8.01670195278042    3.03386714002448    0.64889436136211
H         7.63766492515560    8.87888551445482    0.80534036872396
H         6.22627134620166    8.09119405581485    0.10441494103701
H         7.83928062571391    7.64638197565041   -0.44946557938072
H         7.89716577111436    6.27200698181405    5.79145267630506
H         6.15429333806219    6.03677306484673    5.69028064695151
H         6.85181113389353    7.63280473283393    5.38028760220056
H         5.32057119341515   -1.41591234694245    7.55812138632260
H         4.27137601550424    2.07243334829916    9.77080704635039
H         7.85742435964235   -0.01915072206902    5.64225183548753
H         6.39644119839989    0.21080051639610    4.68631782977204
H         4.12803840531848   -0.30973527470455   10.75913403858229
H         4.13734749268323   -1.65390962712093    9.60682079213488
H         2.85633530323201   -0.44137208631129    9.54702779132646
H         5.02500572657387    4.37062936608952    7.37009787898277
H         6.57209885212767    4.25929325919215    8.21397047919062
H         0.19248456042843    4.89850354476475    2.80541411142371
H         0.55090623950739    6.46438694265458    5.05106044980053
H         1.18610132055421    0.42345079825209    0.97157439399033
H         4.15893538324440    3.07773399456811   -0.53358868118273
H        -0.33419751670465    2.42272929742631    3.13905209633850
H         0.96474538966966    1.89792344086572    4.20815323310934
H         0.22728260084807    0.75122743956876    3.08258463151243
H         3.78252025206493    0.09549787192388   -0.86705391940237
H         3.14652415749277    1.30482296160797   -1.97956313290552
H         2.06210321759659    0.10318447480253   -1.25860136736696
H         4.69135207229152    5.07044686954830    0.58259804882415
H         4.71753342089161    4.80785129285407    2.32979650084823
H         3.42820971637798    5.77580057033105    1.60445749092488
H         4.84304909150725    8.91848438171681    6.61585877147204
H         3.00151060481282    6.42698746375025    9.53500469347062
H         2.97509419247873    7.82491556855184    3.92725963277905
H         4.41397028429177    6.81195866078033    3.86854680279653
H         4.55050092180371    8.51952495787014    4.31482159833058
H         4.06123962844676    8.48467858849719   10.20906477797741
H         4.65737872740916    9.62649902516384    8.99502218057687
H         5.64869271928419    8.25298176126350    9.47742902420527
H         2.07904210308157    3.79915668627329    7.38601265869058
H         0.74449829777941    4.93422689158785    7.49735393646099

