97
CSD_code = CEQTIB | q = 0 | S = 0 | Stoichiometry = C36H55MoN3OSi | MND = 5
Mo       -1.86674471846234    1.51892379575815    4.64049480158703
Si       -4.10328173076443   -0.82260934271856    5.68483170303614
O        -0.41047010970391    0.36878092075574    4.79515992854694
N        -0.97045641648969    1.75887678233194    6.78870409189235
N        -1.86762766654403    3.28184640630410    4.63895289980147
N        -2.48365288189653    1.05357192836664    3.07081181600131
C         0.65465210610399    0.41556329974431    5.66077328659982
C         0.20544702194472    1.14587636036194    6.91842276618186
C         0.96157900955063    1.22732428331278    8.08243367568614
C         0.48083364537234    1.97537945025919    9.14222583443317
C        -0.73537442457556    2.62822375204170    8.99540946504841
C        -1.42328843795624    2.48878064392427    7.80449990484961
C         1.15755633178219   -1.00745687241578    5.97352145248211
C         1.79723583935126    1.24972056582372    5.03532158690279
C        -3.72557152746593    1.04135573149472    5.70526614997388
C        -5.41175967302398   -1.26105802747304    7.01814938968659
C        -4.76250310331172   -1.43989012426041    4.00182335687702
C        -2.50574314924046   -1.77987760958524    6.13766930718903
C        -1.80091214259666    4.56153615414730    4.26478536062279
C        -2.66974637066331    5.53492982800057    4.82247302053040
C        -2.58265587231506    6.85089927072070    4.41181591663796
C        -1.66722705962806    7.24504923615384    3.45219782331282
C        -0.82534762544170    6.30079225203439    2.88985760467551
C        -0.86666374491281    4.97470825712044    3.27503966214849
C         0.03971237549148    3.95676296687647    2.62469378134868
C         1.50439354668016    4.40124453305459    2.62978587788167
C        -0.43354650815160    3.66009845538390    1.19883551745166
C        -3.68561765121059    5.11642901711378    5.86048703872949
C        -3.39075452316884    5.77763135146472    7.20986931271656
C        -5.11134888756873    5.43023449847577    5.40457797778690
C        -2.92734680029108    0.80909110630747    1.83671935548223
C        -2.35191128254946   -0.23841079817872    1.06930759179251
C        -2.80397832840067   -0.46649446118660   -0.21587769088264
C        -3.83030407161208    0.29127061604649   -0.75545369501749
C        -4.40769828390839    1.30342373918798   -0.00770951519477
C        -3.97044876430558    1.58888155224058    1.27182765678993
C        -4.59851785165613    2.69403689080183    2.08760686257626
C        -6.02291261535883    2.30096703233335    2.49043728661972
C        -4.59412643264253    4.02817824049155    1.33904312523945
C        -1.23417892361366   -1.03723952083489    1.69567173378338
C         0.09622742347473   -0.30694046933458    1.48145973221316
C        -1.15015888794070   -2.47359077252984    1.18317792184904
H         1.90744440018647    0.71448098250379    8.15423985801392
H         1.04404486125862    2.05379195888731   10.05992311555537
H        -1.14225007207120    3.23307162165729    9.78989156130835
H        -2.36912665464090    2.98930368911939    7.64918617209559
H         2.08971573169996   -0.98316010170050    6.53100294365347
H         1.32269900334232   -1.52873881896008    5.03290044395818
H         0.41182127327920   -1.55413683856455    6.54670012780673
H         1.44239357281515    2.26682683410451    4.85698967960180
H         2.07941032921873    0.80375316275845    4.08326591723491
H         2.66512460253735    1.28204193926260    5.68970806226643
H        -3.71671980462597    1.36338390647631    6.75327286041307
H        -4.56883346256722    1.56285742888484    5.24060681472956
H        -6.33833703713371   -0.72012204792555    6.85469624133529
H        -5.06531929899352   -1.02010353542206    8.01878271798130
H        -5.64677325220178   -2.32034870471709    7.00132213078874
H        -4.70970505870255   -2.52227379406672    3.92939200912357
H        -4.18929174257887   -1.02321563097354    3.17930619519721
H        -5.80019489688217   -1.15539055637719    3.85589819856655
H        -2.08835957771778   -1.42310877302055    7.07883846452270
H        -1.75608031179423   -1.64724741967065    5.36008666464527
H        -2.68532125009366   -2.84572185224147    6.24535581982745
H        -3.24416997332171    7.58852760409493    4.84386087641643
H        -1.61480227004779    8.27726227109020    3.13880350589259
H        -0.12483459118349    6.61093830744944    2.12762542981327
H        -0.04670344184387    3.01585728360547    3.19863107270128
H         1.81307135602554    4.69696800875069    3.63109334520911
H         1.65594070887077    5.24729032860087    1.96390393637517
H         2.14622290841849    3.58876594278994    2.29304680334257
H        -0.48690720750216    4.57681682662390    0.61484032593057
H        -1.41960681546135    3.20059743385018    1.22717053843644
H         0.25176922767652    2.97403856637047    0.70463795753066
H        -3.60608875216173    4.02713988225102    5.97241122172933
H        -2.36860628650262    5.56872485121118    7.52127158882051
H        -4.07361495132142    5.40941640888248    7.97446414773091
H        -3.50834486793277    6.85658797814320    7.14006443181883
H        -5.83104694268510    5.06367351670925    6.13473945132812
H        -5.30836137039823    4.94786864954923    4.45056826954651
H        -5.25809415853695    6.50126779008226    5.28722338641808
H        -2.36278454095416   -1.25084856005016   -0.81220766586137
H        -4.17888979409584    0.09208681235891   -1.75835275438844
H        -5.20898335032227    1.88501537571443   -0.44018175551374
H        -3.99543359493805    2.81406604752979    3.00159786080875
H        -6.00868734568307    1.36585020261994    3.04614976100591
H        -6.64753892460542    2.16927266280022    1.60902911186710
H        -6.46900177503890    3.07170596375168    3.11609132560149
H        -4.96743888998813    4.82018387852200    1.98462564312634
H        -5.22208490003177    3.98590087582098    0.45200862417568
H        -3.58302397327329    4.28956158506660    1.03818658865920
H        -1.42314040044632   -1.06132013851704    2.77958467018942
H         0.05636964130391    0.66747970714799    1.96912230964208
H         0.28464452885743   -0.16427859750209    0.41854617327365
H         0.91761972234969   -0.88190908003134    1.90695942240962
H        -0.45879280140684   -3.04725327433440    1.79806622235584
H        -0.78844204208656   -2.50417560666608    0.15774645618945
H        -2.12571631865070   -2.95284387411812    1.22410504299018

