104
CSD_code = CEQVOJ | q = 1 | S = 0 | Stoichiometry = C52H47OP2RuS(1+) | MND = 8
C        13.25895253394208   -0.60959599316082   35.51827819363225
C        12.03026256705306   -1.20643445608672   35.23543467341328
H        11.26239801149305   -0.63204619255237   34.73403449326064
C        11.79769032435647   -2.52489055351980   35.57605945838544
H        10.84615154340566   -2.98057273080743   35.34604953337237
C        12.78461457235750   -3.25928132149251   36.21452955998866
H        12.60366711562871   -4.28928240423851   36.48128196208056
C        14.00061731516796   -2.66803671601819   36.51431811034290
H        14.76803198824733   -3.23750910643654   37.01695632207944
C        14.23866679142395   -1.34772772006777   36.17681975900241
H        15.18669284519215   -0.89635666237762   36.42827980617365
C        12.79276554803162    1.36848476204787   33.48887128064864
C        12.76082150298314    0.32970733361636   32.56209510356218
H        13.08719828423480   -0.66088052178862   32.84408644024246
C        12.30370756948248    0.56854622511346   31.27869487562055
H        12.27551672826789   -0.23941349251850   30.56327358007229
C        11.88532477286490    1.83685393704437   30.90780891935681
H        11.52832099629392    2.01463133106856   29.90497954996981
C        11.92503959078087    2.87558805516959   31.82385712304218
H        11.60405883508623    3.86558013216246   31.53584450783794
C        12.37484600001328    2.64029480859223   33.10972534513120
H        12.40973975878220    3.43983671445981   33.84026061613653
C        15.73903083870986    4.07327004964183   37.61671455000001
C        16.57938182326884    3.03679179000640   38.02023755358640
H        16.54588579994696    2.08448083404370   37.51098426674129
C        17.44947039747631    3.20720469631761   39.08168037878439
H        18.09389691765005    2.39402498483158   39.38117664486630
C        17.49313777200296    4.41445298638528   39.75892224563444
H        18.17865608613564    4.54899033174185   40.58142426069269
C        16.64958074620456    5.44457434521847   39.37887336089314
H        16.67025255104691    6.38592402076320   39.90695144640118
C        15.76674767443304    5.27114141037765   38.32857012949498
H        15.09673666826867    6.07373328906405   38.05592345176113
C        14.32126428004262    5.50130058640618   35.62485114778725
C        13.07851137326625    5.90211857947382   35.14919605356825
H        12.23761315273590    5.23375796834944   35.26297534186060
C        12.90963591327457    7.13991727196236   34.55503801730520
H        11.93672125993145    7.43627382056518   34.19199412122268
C        13.98945735993696    7.99678293385848   34.43023333832174
H        13.86489096786997    8.96278515918758   33.96573869615528
C        15.23030698623401    7.61378834194060   34.91450264954678
H        16.07274765339562    8.28382744121251   34.82955245010476
C        15.40013458211776    6.37780839706768   35.51045662809910
H        16.36787510868467    6.10860699853188   35.90701531174543
C        10.69767344395428    3.42954764337723   36.17976479125930
H        10.38653560886027    3.99593001184030   35.31182509099938
C        10.98288508498908    3.97107936231524   37.47133510635557
H        11.03502550854661    5.02451886873080   37.70990606042760
C        11.01966690072704    2.90988285801339   38.38852609890340
H        11.08427333534655    3.00166649696429   39.46395692823656
C        10.75565377426693    1.69749846240999   37.67993770169123
H        10.59356984623182    0.72810768035139   38.13309074545746
C        10.51541892335991    2.02862727754172   36.33234322319274
H        10.15826105669282    1.35809970747218   35.56325546021405
C        15.25315719323175    1.47346585820182   34.95576351159259
H        15.72808563709705    1.10148120735152   35.87372700111867
C        15.42985058807849    2.99802163983618   34.88163418771626
H        14.88049425214192    3.35115663463453   33.99346229324825
C        15.82149456397260    0.73087722998826   33.75131128847091
H        15.49929343742624   -0.30948123425210   33.76841220143890
H        16.90887818686747    0.74437654419324   33.76556154134619
H        15.47898680257947    1.18244706257246   32.82224574760360
C        16.88719922993043    3.42184833150177   34.73798178271439
H        16.96262312831060    4.50172737262944   34.64943365820272
H        17.30787438740440    2.99131484801927   33.83234672001893
H        17.48594554620973    3.09808443240748   35.58550572033353
C        14.19662931904915    2.15621122553145   39.69158792844418
C        14.85588913417237    1.72695808497020   40.87367512375077
C        15.37309137164851    0.41171037600074   40.98051912287518
H        15.35535335375195   -0.21173471218624   40.10119327830360
C        15.87319785565479   -0.03092581037222   42.16219834925909
H        16.31437490089789   -1.01259852145082   42.24200274394225
C        15.73293559936456    0.74862138880878   43.33897102251692
C        15.19858084549836    2.06247682576506   43.25050874649814
C        14.92988539090051    2.61291259986971   41.96329292076077
C        14.65850711467499    4.01066080423946   41.70634644883059
C        13.87868953640574    4.29958944642358   40.56987085122881
C        16.31395771113877    5.01836748758569   43.38165933844257
H        17.04357746311080    5.78015696584321   43.10914643806568
H        16.79612745665284    4.04732255090578   43.33822346102605
H        16.01662376666808    5.21430087521967   44.40999323302955
C        16.04877824293198    0.22202543915595   44.60382325777000
H        16.48802900296614   -0.76279302983548   44.65886861000288
C        15.76586843572615    0.92346999510882   45.74629643715274
H        16.00230948565223    0.50808641927397   46.71363870233230
C        15.11981620974193    2.16313926193304   45.66384109068215
H        14.82739309225683    2.67202780295208   46.56947740769106
C        14.84601105088478    2.72297024449971   44.44445798532894
H        14.30583464525929    3.65435489377949   44.38426274964179
C        15.15576516488436    5.11412185670518   42.43316123366337
C        14.65372509475953    6.37407017811946   42.15856436811785
H        15.02299109088613    7.21028990332296   42.73460051916790
C        13.71565965059779    6.61685173495712   41.15616323196088
C        13.37277243621436    5.56764045821285   40.32287816083788
H        12.74817546594895    5.71465363758639   39.45623544827347
C        13.16236478490333    7.98825978425941   40.95125457090420
H        12.61279051722971    8.05543652920986   40.01655710322289
H        13.95951679204807    8.72886761804315   40.94801110842693
H        12.48581169938423    8.23889043046487   41.76784706646556
O        13.60947130597076    3.34906524517155   39.63005255238279
P        13.43416486225535    1.16114599356025   35.17370460642141
P        14.49191711247379    3.81600625685659   36.30356833077475
S        13.98138589523944    1.18871718927404   38.34172902379697
Ru       12.65965959829181    2.50394260901895   36.83033930955261

