101
CSD_code = CEQVEB | q = 0 | S = 0 | Stoichiometry = C32H60Cl2O4OsP2 | MND = 6
Os       14.96313448511935   14.46342840894392    7.33585209256030
Cl       15.23967652484863   12.16471989722912    7.54543653325365
Cl       13.88588265020712   16.11816038360723    6.12930921761012
P        16.74339149443968   14.50864350767917    5.72329787918655
P        12.85771552727394   14.14814020917376    8.53348150598658
O        19.05362303661529   15.64233492335893   13.20799230201689
O        21.04060398850465   15.36873820406388   12.21657878616224
O        19.43886652304091   16.58422413464494    9.79036507786413
O        20.54164451011390   14.78869918602596    9.03151572947534
C        15.80924077540275   16.01240441208966    8.57731967749078
H        16.54665406420375   16.66162130129572    8.10655382808343
H        15.11567078798681   16.56180185076146    9.21137498299605
C        16.21966060770920   14.71726045057182    8.97088218576934
C        16.93968143618478   14.07589542588923    9.86676067301030
H        17.02377035793355   12.99871661328218    9.84419887425900
C        17.63229830546106   14.77173573810915   11.00701444204740
H        17.25146621879658   14.38185637140107   11.95398632751124
H        17.41077981424656   15.83891505351497   10.97205504838464
C        19.16177133963377   14.59553356923452   11.01719813903965
C        19.62662963956060   13.12287064017586   11.05222894588336
H        19.13903071461232   12.58559250632945   10.23772262923750
H        20.70333771884165   13.10778968963155   10.87395701973092
C        19.31322561291803   12.48692791556702   12.36625034067768
H        18.26891016554813   12.29048377255316   12.56856971025119
C        20.23236275026474   12.18594755428709   13.28232903440647
H        21.27857251963018   12.38014353693498   13.07928173972057
C        19.92814448987612   11.60325312655091   14.56853057425131
H        18.88270329552781   11.40616965408693   14.76695778546672
C        20.84789032472266   11.32009900800978   15.48517150547206
H        21.89492326937967   11.50798902018536   15.30997595670320
H        20.59237245263074   10.89132154847101   16.43861962243938
C        19.71192309988164   15.26784048917693   12.27807288337496
C        21.67713776588729   15.91526898855301   13.36491260434728
H        21.30750114085945   16.92406756092137   13.55828575089167
H        22.74108839379647   15.93141451103415   13.14383145884646
H        21.47292795084511   15.29175698820813   14.23758185883170
C        19.79923641459316   15.29959179453039    9.82614732901733
C        19.99621633960387   17.37856377959976    8.75186707484852
H        21.00556715805468   17.69310611420720    9.02474366154782
H        19.34857769788159   18.24556937082835    8.64458422947008
H        20.04305086011041   16.80749813055370    7.82343676649273
C        18.43668795610714   14.27574513603856    6.50389197780803
H        18.36234361935768   14.89543028335036    7.40824343972859
C        19.67474186329031   14.72702882616279    5.73025485248767
H        20.54187375882123   14.54539940394933    6.36427048220747
H        19.65603068296559   15.78636662621701    5.48759309474039
H        19.80850866360981   14.16256979468420    4.81112367526099
C        18.63072485950604   12.83490969189251    6.97124703479080
H        18.87374655604240   12.18133206494781    6.13659726151439
H        17.73664142804922   12.46006661862049    7.46215434745018
H        19.45608035508554   12.80253522381553    7.67973060189149
C        16.49957036186171   13.03612632559727    4.59818652435988
H        16.65200755667511   12.18536215206934    5.27414992742614
C        17.47236100193151   12.90122577160471    3.43204394139227
H        17.23065900507615   11.99987282593094    2.86912302600157
H        18.49672764986812   12.80948950870064    3.78272785466842
H        17.41341428949943   13.74619920959208    2.75084280129753
C        15.04491403520332   12.97865791854889    4.12357077659026
H        14.85389106497015   13.67171915895828    3.30890052861751
H        14.35988600532528   13.22853580149415    4.94159285352753
H        14.80058694129980   11.97313736822054    3.78262321421313
C        17.05799937053074   15.95833585874927    4.57786871441357
H        18.00824063437645   15.73215046858121    4.08018891048732
C        16.00007080352848   16.18924427976497    3.50257884542966
H        15.01138168966415   16.27665274158374    3.94301116813292
H        15.99173999927816   15.39682093427373    2.75936213103072
H        16.22032409796939   17.12305716359971    2.98555428643016
C        17.20637731318726   17.22671424548487    5.41590258055475
H        17.54903408923249   18.05152955068332    4.79212470224831
H        17.91921050892208   17.09187328498803    6.22723948652919
H        16.24090768042199   17.49642238784192    5.83784310221815
C        12.08833216152874   15.51021499714113    9.55935035411538
H        11.05579629446749   15.20384358079329    9.76012828929179
C        12.06281458209817   16.82659210577444    8.78665757679637
H        11.50210238551297   17.57421543799012    9.34730384233263
H        11.60035952395676   16.71447299267172    7.80950031181579
H        13.07061215011859   17.20092425902310    8.62792093098003
C        12.82207545040128   15.69348036950356   10.88955446968924
H        13.89681234389071   15.57499478254477   10.76665048810683
H        12.48206155227346   14.97606274298258   11.63149879373951
H        12.62917112524139   16.69042878928702   11.28323301428023
C        12.70433526341742   12.61311965105101    9.60071990948175
H        12.89101410511193   11.80256131335408    8.88670635586504
C        11.35093482777531   12.37186819633035   10.26167585644892
H        11.42340459087704   11.48401393624280   10.88932980681227
H        10.56572183826190   12.19261212742258    9.53298219656840
H        11.05733023130523   13.20356906908293   10.89745786198178
C        13.81758531175169   12.53907040654647   10.64555199135118
H        13.59094590474331   13.14010413327237   11.52050845690797
H        14.75766938605409   12.88117367047410   10.22288451108369
H        13.94269297014831   11.50684917410935   10.96865274186506
C        11.57166596641073   13.88681673318441    7.17636143456353
H        11.87251674194048   14.60791224543673    6.40353625818167
C        10.10744836016512   14.18115785507954    7.50020573587204
H         9.51273289582949   13.97370140354102    6.61042957439907
H         9.95163180496115   15.22368950016277    7.76255895959583
H         9.72554352212270   13.55964477151087    8.30468832114356
C        11.71017572175506   12.48389201250172    6.58036833407121
H        11.23664107879721   11.73829295232203    7.21628429601584
H        12.75654252407925   12.20413845928544    6.45265493877974
H        11.23038332110595   12.44507636406613    5.60267045997719

