85
CSD_code = CEQVAW | q = 0 | S = 0 | Stoichiometry = C32H42Br2N6NiO2 | MND = 4
C         4.40333884898863    3.30154529281852   17.40362851222130
H         4.44357906807396    4.03638106705618   16.58395442804099
C        14.55160789388101    3.30315101383661   19.65915954397643
H        14.47210744838965    3.44668923510714   20.75225916425339
H        15.41852763616885    2.67022652779377   19.45419405639882
C        13.28742540619350    2.61322404777581   19.15864708768395
H        13.39830987297054    2.40048464753999   18.08071321926131
H        13.15567205546350    1.66731793814863   19.68997250160763
Br        8.93767820926680    5.89590933841661   23.00749547690362
Ni        6.89193248428198    2.20401803310602   16.98580574951976
O         8.36388289814034    2.70572095104374   17.96999074618158
O         8.06050303999486    1.27761480853174   15.90444600933274
N         5.74094394799975    3.25647305937231   17.99909858198515
C         8.76893165899849   -0.54544654044473   12.90623484449890
H         9.62929676415661   -0.91338395193535   12.36882478023024
N        12.14063443995253    3.46113763066981   19.41896170789029
C         3.24090775676585    3.67105866025887   18.32612267320533
H         3.37381191929949    4.67403125318563   18.73357930479965
H         3.19133484257879    2.96233711953246   19.15578396200947
N        11.34045307083924    0.43571291349551   13.57647510165225
C         8.71565022323379    4.88298261402829   21.40662812554082
C         8.96096312762375    0.14647354608961   14.07173131884540
C        13.57563997117096    5.41337818832568   19.21850349893348
H        13.71260915829405    6.35588309329600   18.68294729715663
H        13.46183880630655    5.63549154893411   20.29528392623897
C         7.48124771014206    4.79046121249386   20.82850494301716
H         6.62707385117404    5.28293124511404   21.26950561834657
C        12.68902660495904    0.31588218657041   14.09543270835764
H        12.76061159746496   -0.60163766725835   14.68496178158359
H        12.95247201319850    1.17222812348120   14.74092203587253
C         6.37699057478789   -0.30462648320517   13.08334777955587
H         5.38389232028086   -0.48042857697550   12.69671770314282
N         5.40504106235255    1.57779279162108   16.06581772762201
C        10.88602241464829    2.82157710234226   19.07431221626216
H        10.90902964406061    1.79302220859405   19.45114830618636
H        10.72280715875693    2.76339105977427   17.98458434642534
C         9.82998295122996    4.24795104746569   20.84819135755693
H        10.79871413254930    4.32704764535873   21.31686033091646
C         7.47727595677840   -0.76467569614792   12.41643503619327
C        12.22680150838059    1.58674513663169   11.62606473229121
H        11.95849197511201    0.73623806905720   10.97310592911217
H        12.16152899992476    2.50702533120411   11.04051544960715
C         9.70869035190427    3.52216797432172   19.69408128043791
N        13.57827149503107    1.45641142095866   12.13601328263919
C         2.87054211291946    1.90110985707825   15.97280023364469
H         2.67649657267962    0.90700933171086   15.56794134106986
H         2.94464527070026    2.60733834105381   15.14283141028512
C        11.24386940447248    1.65104006260325   12.78846103022264
H        11.47055570084864    2.54132933993673   13.40141616655159
H        10.22543668249089    1.74424953283482   12.40506358835036
N        14.72790648829082    4.56778093325234   18.97171266683726
C         6.03344508045335    3.95482552806702   19.04756480922088
H         5.25832616288221    4.54569817459607   19.53080369949665
C        10.33781065565243    0.39268473542617   14.62359908254943
H        10.31117758039074    1.31735883174512   15.22530249418843
H        10.58773547226738   -0.42881253345969   15.30407656524492
C        15.96392063619035    5.21657492406833   19.34589248078777
H        16.79824332572937    4.56035521416516   19.10152829023592
H        16.01099938423036    5.45965708816493   20.41976965885886
H        16.06776264028311    6.13914568489786   18.77638013911946
C         7.31700308134494    4.04020411591236   19.64817989964807
C         6.53717732363127    0.40983495457330   14.28589220842330
C         8.43818635988574    3.38763294385935   19.04987789764139
C         7.84411532854228    0.65011247738642   14.81067353434146
Br        7.26065756896080   -1.72702648450602   10.78393255653886
C        14.56005288865012    1.48083463422528   11.07566495391995
H        15.55637925316512    1.42300811300289   11.51199699474281
H        14.47201296372804    2.42001334047564   10.53113702797561
H        14.43978385627683    0.64909484475073   10.36276456322038
C         1.70834780053552    2.28283223148433   16.88825054373514
H         1.60315508002074    1.52647304749279   17.66913580475904
H         0.78245218898482    2.29715482016785   16.31149891498374
C         5.38934202381994    0.86519951997470   14.98706988665118
H         4.43661551500126    0.55991872069110   14.55994993308729
C         1.93672409403777    3.64521251427544   17.53054946962615
H         1.97553711621908    4.41105462478537   16.75277802725441
H         1.10388753226688    3.88519115402031   18.19306625651730
C         4.17031925792996    1.91357181767609   16.77802778770736
H         4.07363509609962    1.18865982061861   17.60186085590841
C        12.31479349073990    4.72000128540169   18.71758462890791
H        11.44551282341916    5.35373255322674   18.90607162736396
H        12.40234852624845    4.55958708405731   17.62838085381369
C        13.67577084372181    0.25012296327816   12.93502122535108
H        14.69335367391491    0.17120868264907   13.32544232646975
H        13.45991027054917   -0.65069099294617   12.33198438125781

