61
CSD_code = CEQWOM | q = 0 | S = 0 | Stoichiometry = C17H32B10SiZr | MND = 12
Zr        2.16041161978349    3.88734945538648    3.44076872365362
Si        3.50131706973040    1.77391663902583    0.87102560111456
C        -0.36302335826259    2.13164311870002    2.60605690371531
C        -0.01449271280822    3.38553194484629    3.56808634720351
C         0.83419479099986    1.54456382473855    1.86306798507581
H         0.48137705140788    1.13941742372389    0.90408911252790
H         1.23123639065243    0.69133519430412    2.42946865682046
C         1.97106602068395    2.57496516089331    1.63153393978032
H         1.59572184883694    3.27985200305414    0.86291156781209
C         3.30507317651567    1.32155390993872   -0.98673711668454
H         2.54050135909688    0.56408498537202   -1.12950898164935
H         4.22874299977993    0.93256442006100   -1.40370530767867
H         3.01978138360011    2.18611214445422   -1.57873454679825
C         4.02019849848537    0.12650298358613    1.70876486796438
H         3.32509919870301   -0.66562900360496    1.44851239516965
H         4.06175417178146    0.18312385893100    2.79054603247197
H         5.00102291175382   -0.18242247055298    1.36051470977430
C         4.93242381226773    3.05354115575238    0.95307469563108
H         5.89529680993530    2.56408300132521    0.84827741236937
H         4.94055064799907    3.60900595304222    1.89059558329262
H         4.85293713321748    3.77078493392665    0.14173520902222
C         2.67097977287640    5.72636632107786    1.76264322581518
H         2.84375795608342    5.55088332386206    0.70772955935979
C         3.67155833859408    5.89955682161931    2.74364419247706
H         4.73927070297335    5.88542025937846    2.56426852521601
C         3.04838652887020    6.32064905562837    3.93140867983835
H         3.55581472334235    6.66586378727880    4.82174245775504
C         1.66030824484762    6.37390223948696    3.70966207626292
H         0.92514454695401    6.77088820387082    4.39990863063677
C         1.42772389389868    6.03710530069632    2.35500959215842
H         0.49168181502677    6.16416359557389    1.83087898180434
C         2.38003908807911    2.83999728974471    5.73064506100558
H         1.54394525439343    2.59152854332376    6.37032409745611
C         3.00798619595279    1.97286943782025    4.80512796419317
H         2.73566216367871    0.94231053383392    4.61625481093996
C         4.18787300964151    2.60619478832406    4.35043664160383
H         4.96674880881536    2.13942486339707    3.76391514101180
C         4.29054633407403    3.84763568575770    5.00287553620644
H         5.14544716763238    4.50948447172575    4.95923957706914
C         3.17068412913010    4.00027454386923    5.84134204984912
H         3.01239676879965    4.79557128802549    6.55917844785453
B        -0.94528230220045    3.64904812732514    2.10849826291267
H        -0.41505186998533    4.16751473121933    1.19262651686792
B        -1.93645455983909    2.22065702781188    1.89484162182760
H        -2.06928099994089    1.78939272297413    0.80809263470904
B        -1.62103456185591    1.12440047655346    3.22166869543501
H        -1.54324556650230   -0.03195191530803    3.01697156012896
B        -0.44034223701707    1.85769047143403    4.28693386925212
H         0.41443049236003    1.20208448418739    4.75775241960017
B        -1.39523842461688    4.44092992504667    3.59982018330809
H        -1.20721252672009    5.59780042156575    3.73407565979698
B        -2.64547355852530    3.71574189288330    2.55042759492013
H        -3.39949873254900    4.37843740384689    1.93626151593092
B        -3.07698638162967    2.13713406169762    3.25232464082150
H        -4.15286851899531    1.67658678086433    3.12797608222689
B        -2.12933600449180    1.91282483674160    4.74485444513578
H        -2.52179872633617    1.29953927232705    5.66945681299974
B        -1.07350904081103    3.35120582107273    4.93338377043742
H        -0.64919196703088    3.78709507052980    5.94941787374136
B        -2.73966980314636    3.52886551809786    4.32114586659115
H        -3.57470097798796    4.06333187792980    4.95569093425434

