49
CSD_code = CEQWEC | q = 0 | S = 0 | Stoichiometry = C14H24B10Zr | MND = 12
Zr        2.39145656520802    5.16351474289232    2.01244171408892
B         0.88040896527259    5.05050372605213    4.97556716426905
H         0.09159697521292    5.68932295990241    4.37599795190890
B         0.41186176826054    3.66314429664383    5.93800147506039
H        -0.72923346143309    3.38482013522446    6.00500848519310
B         1.59191288529996    2.39159557788321    5.68975035490935
H         1.23233660151979    1.27553036284429    5.59078493596497
B         2.82066056256624    2.97204225559724    4.58382745214244
H         3.25556576782733    2.27058796190476    3.74634201512588
B         2.44231365159179    5.62354710313115    5.53033076529678
H         2.75771209345616    6.74771917641997    5.35143694923641
B         1.22486525762214    5.05173891512985    6.70107281369261
H         0.66451154950123    5.78845710283906    7.42745993854649
B         1.67304622277140    3.38757834495218    7.15656603730476
H         1.41963961497771    2.94535979725453    8.21722489073073
B         3.17594282486493    2.95690694341960    6.29917851548181
H         3.97757272164808    2.21814017252223    6.74201899522229
B         3.62931135319045    4.35593703389469    5.27607295395666
H         4.71683361622298    4.64601378103393    4.90366760645779
B         2.94552254601457    4.61592592161495    6.90275270478786
H         3.59395147369591    5.05185427053228    7.78291421734180
C         1.19712559218444    3.47626689993820    4.41153708938097
C         2.34630951422043    4.58646118662661    4.14581062278309
C         0.45599415890874    2.99830914255158    3.16264646244111
H        -0.57233629845413    2.72975485552902    3.44875045072680
H         0.92424409605539    2.07223162070270    2.80015937987209
C         0.45072865842096    4.04588031824900    2.01698583291304
H        -0.40800601338222    4.72070798499922    2.19589025418640
H         0.22007150818422    3.51206186464368    1.07388466328583
C         2.95079870773229    7.60327647788407    2.39910112402547
H         3.72423538010490    7.95633254384703    3.07280293387822
C         3.08271113973676    7.44337584104463    1.00529046032002
H         3.97942356624638    7.64524055282499    0.43436624854371
C         1.81574834805143    7.13997463465787    0.47149361906749
H         1.56897443896712    7.05781338620931   -0.58107224295158
C         0.88203384868845    7.16237266824996    1.53088253760448
H        -0.19502885619191    7.12115715121932    1.42230371360372
C         1.57973426705874    7.46189974897603    2.71933007658452
H         1.13059149937123    7.69930793891538    3.67267664161033
C         4.70430437850225    4.86346537058621    0.91196284517966
H         5.55004237744863    5.52817029848337    1.04535450890731
C         3.82052246008556    4.85495596183445   -0.18393538197001
H         3.85930119114474    5.51883867276834   -1.03727956422819
C         2.97170818614931    3.74212259920983   -0.05927517129193
H         2.25948711039451    3.40234505518668   -0.80254184497177
C         3.35600418088472    3.03058606408221    1.09979109255304
H         2.99862979515302    2.04634092958570    1.37458709231979
C         4.42642243805610    3.73031387967115    1.70620896227963
H         5.04063477098368    3.37339576983471    2.52366965663000

