83
CSD_code = CEQXOM | q = 0 | S = 0 | Stoichiometry = C46H26FeN10 | MND = 6
Fe        1.48434270185384    2.89944900451152    9.60970347289411
N         2.65881672377080    2.85925130333190    8.05167409251647
N         3.83834870546657    4.92591139370208    8.37039637804220
N         2.26615497244028    4.60742072874059   10.15486109998806
N         1.95703927472984    0.78895651535300    7.05911269557603
C         2.68477555839696    1.88218919119292    7.10826696929697
C         3.56423967544185    3.81640515101163    7.72135258974307
C         3.23868829907402    5.27854926065829    9.48585239964105
C         1.91573220686597    5.31856863588336   11.25739882888445
C         3.67066606561973    2.21477384329425    6.09660336000406
C         4.22937704605493    3.44528815839233    6.48601446734612
C         5.21320898933412    4.05430340368973    5.72503836903360
H         5.63582957690134    4.99843658657379    6.03069049061107
C         5.62580369277897    3.40974003489062    4.57115068711504
H         6.39158520106368    3.85796926819151    3.95457433778823
C         5.07279948494954    2.19042981419274    4.18575380135760
H         5.42149729262728    1.71840308744610    3.27850577690131
C         4.08860400896753    1.57582263693619    4.94123608593577
H         3.65471391199400    0.63227232710171    4.65011071321078
C         3.54940291073189    6.50691480397631   10.19245411383827
C         4.44474535909258    7.53489142319051    9.94810079513759
H         5.08590762127233    7.50813582994187    9.08116317048689
C         4.48212412042001    8.58407648534053   10.85048116249061
H         5.16923830653167    9.40223294025566   10.68915409057122
C         3.64935375078525    8.60869756666903   11.96722925636052
H         3.70850402228290    9.44526017856423   12.64858104226319
C         2.75169375035317    7.58509731668574   12.21804789348845
H         2.10338652945291    7.59646021062860   13.07997765778493
C         2.70841462123650    6.53196134282511   11.31967336640733
N         2.69360239262419    2.02434325651525   10.57636844969022
C         3.42459213199105    1.43037591071828   11.24953583953534
C         4.29493858332716    0.70906947444276   12.07937435109746
C         5.58661835887392    0.39220253044620   11.64464597367531
H         5.91000292731017    0.70837459764207   10.66420829545070
C         6.42960519474325   -0.31987357781140   12.47401875938315
H         7.42657424739419   -0.56530115816570   12.13992950104438
C         6.00150842521434   -0.72015192014040   13.73125252199005
H         6.66615039714459   -1.27682405035723   14.37450193263858
C         4.72103629184601   -0.40744123922587   14.16378899102338
H         4.39025619205676   -0.72066533610318   15.14269257481344
C         3.86437470930582    0.30378563406305   13.34818285788184
H         2.86546389326475    0.55257220993756   13.67427274505738
N         0.30982985617665    2.93965610842929   11.16778599597327
N        -0.86962043973842    0.87297134334997   10.84911022166792
N         0.70251194440249    1.19148217298165    9.06459322577787
N         1.01167946233573    5.00989541822382   12.16040125870289
C         0.28390863145403    3.91668125928998   12.11123919755421
C        -0.59554167496031    1.98247728045792   11.49815093410076
C        -0.26999699522833    0.52037359019002    9.73362855635176
C         1.05294511335494    0.48029257467475    7.96207680008448
C        -0.70192783241585    3.58407157426783   13.12294249634240
C        -1.26062730133220    2.35355221323223   12.73352938714750
C        -2.24443131521926    1.74451931750197   13.49452360582446
H        -2.66704139445185    0.80037097759280   13.18888675087168
C        -2.65704150045641    2.38908093086135   14.64840194801388
H        -3.42279751255992    1.94082285672233   15.26498790158706
C        -2.10404383242241    3.60839287514163   15.03380307473232
H        -2.45271707024355    4.08040835111132   15.94106508578870
C        -1.11984838015096    4.22301132809154   14.27832394315434
H        -0.68594857792400    5.16654532575640   14.56947409022568
C        -0.58074244487869   -0.70800209029953    9.02705710386572
C        -1.47613881004022   -1.73591915431358    9.27145152995304
H        -2.11728129772290   -1.70908641459038   10.13840871961470
C        -1.51361416855215   -2.78510842928906    8.36908770012200
H        -2.20076838745405   -3.60322617765726    8.53045828212601
C        -0.68086144249064   -2.80979034168755    7.25232921934753
H        -0.74006039306197   -3.64637553674956    6.57101219593813
C         0.21687235116113   -1.78625467238500    7.00147834046651
H         0.86517004620751   -1.79770166086880    6.13955012873124
C         0.26023481496112   -0.73309375283685    7.89983130769279
N         0.27515852411739    3.77443987579766    8.64276693305311
C        -0.45579709170255    4.36773079774682    7.96893575091584
C        -1.32563746488726    5.08895768291452    7.13856396888971
C        -2.61743905593048    5.40625973320348    7.57262905800503
H        -2.94139560473030    5.09032299119559    8.55294146567847
C        -3.45984426150781    6.11845567585360    6.74277961534886
H        -4.45693536361150    6.36411756630592    7.07633229988884
C        -3.03100988719771    6.51843543033632    5.48568954901899
H        -3.69518570177283    7.07519277868806    4.84201210852310
C        -1.75049135849311    6.20519982269462    5.05374654659099
H        -1.41922950125000    6.51809531565113    4.07489774426322
C        -0.89439874788658    5.49381573287259    5.86984414337415
H         0.10458594051298    5.24469455440652    5.54423985669759

