66
CSD_code = CEQYEE | q = 0 | S = 0 | Stoichiometry = C33H28BrClNPPt | MND = 4
Pt        5.85573080116345    6.84431267896463    3.63649645621697
Br        5.78449130159314    8.19422993975209    5.75966943593681
Cl        8.17193341641803    9.89379132312495   -0.98701388220293
P         3.84597355440701    7.61477505811312    2.98293795560285
N         7.64200777145625    6.04833976634949    4.15919033295071
C         5.87527442574619    5.34106897494888    2.20057208173166
H         5.07567858857237    5.35696924465186    1.45557581599097
H         6.84231034449260    5.38165068419401    1.68469224525737
C         5.77218859391638    4.13995542319433    3.05015637924356
C         4.71708834696179    3.23694320683090    2.91363287270841
H         3.93997026027991    3.44801415047829    2.19257637912244
C         4.65263328692255    2.08542620235990    3.67378506923842
H         3.81559482154156    1.41300572572911    3.55379546490902
C         5.66432884112469    1.77688484744578    4.57205422708219
H         5.62160357452438    0.86664310844382    5.15059189469384
C         6.72575756488160    2.64724933642360    4.72551380376321
H         7.51105519992712    2.42906130428254    5.43569521085500
C         6.77334562969685    3.83718977559725    4.00423102198356
C         7.83810442239479    4.79262979510991    4.24275997705268
H         8.82153981541697    4.40410599465782    4.51831284263081
C         8.72194088118984    6.99988293896564    4.25065203225329
H         9.69067100158757    6.49854622087741    4.37406397599617
H         8.53753667678201    7.66182263575892    5.10448829430336
C         8.66319911486340    7.78623119829742    2.95929393540647
C         7.87440151156763    8.93277291786406    2.86825076597777
H         7.42177222577200    9.35466836892908    3.75459013160885
C         7.72826337648967    9.58734206114290    1.65605930106759
H         7.12363904480988   10.47739680113454    1.58269148715075
C         8.36325123142888    9.08661719803725    0.53082060056027
C         9.15821239602994    7.95471898030554    0.60628103921717
H         9.65393937858263    7.58076593922508   -0.27545827296141
C         9.29878104526448    7.30668764086616    1.82105032582041
H         9.90901000061361    6.41662948519363    1.87966305671057
C         3.03216674810884    8.96033399942066    3.89828522751487
C         3.63095801621396   10.21464858088053    3.81146374848218
H         4.52532658859807   10.32950335396640    3.21128683902194
C         3.09691030333818   11.28672676076925    4.49689076311010
H         3.56681389357424   12.25693058578151    4.43473671320393
C         1.96284677728368   11.11187373177974    5.27533364808155
H         1.54755181627754   11.94805688825320    5.81796027226963
C         1.36852208461743    9.86547028098580    5.36683190378902
H         0.48964074025884    9.72850851320003    5.97986783714489
C         1.90046991524777    8.78568765244919    4.68252806747608
H         1.44063721495495    7.81048034186055    4.76376460242651
C         3.66388697267827    8.22468496037352    1.27972388194870
C         2.47064816946194    8.79545587836537    0.84554160457417
H         1.63421297743040    8.87491633452507    1.52745784827674
C         2.36500916737661    9.26739773783791   -0.44961440985135
H         1.43759798183364    9.70618946788674   -0.78815204729352
C         3.44785348438536    9.18379364788829   -1.31177718019897
H         3.36125391076558    9.55699214595590   -2.32157488021398
C         4.64201218140693    8.63332167647843   -0.87705860033563
H         5.48990310557752    8.58224650379886   -1.54346081169499
C         4.75073018873846    8.15639131081113    0.41708431966844
H         5.68129172514342    7.73496315972552    0.77647821500580
C         2.70135960900054    6.21433922383723    3.15119418699038
C         1.79690920132052    5.79208325129577    2.18669286273721
H         1.70686050789903    6.33045509056778    1.25365838271382
C         1.01982415367903    4.66971565872692    2.42090719878222
H         0.31737036098351    4.33953019756809    1.66911912026066
C         1.14242757890607    3.96821967501048    3.60884519875890
H         0.53290420983788    3.09362429443426    3.78252184712299
C         2.05376734628343    4.37960105148449    4.56930039120360
H         2.16054084011560    3.82555403216260    5.48997155536163
C         2.83598681209671    5.49368337273354    4.33746606314522
H         3.56437696982887    5.81839171245641    5.07405337269497

