89
CSD_code = CEQZUV | q = 0 | S = 0 | Stoichiometry = C42H41Cl2IrP2S | MND = 6
Ir       23.67900137722840    4.76046950618223   10.81902283906949
Cl       25.13175856038141    4.17502273961535    8.89105899377042
Cl       23.51203513277415    2.53041382897138   11.56869078660618
S        21.57891765502126    4.33808143163414    9.30366326007390
P        23.90647843596642    6.81757379608678    9.88187944842455
P        25.14080356511284    4.98480654304221   12.59171717861775
C        22.30022503140183    5.68533331450572   12.02639579054535
C        21.48255737996812    4.96980605839587   12.89214436278151
H        21.64324359899551    3.90952605449760   13.02212793825231
C        20.46086247499952    5.58321769469149   13.59924617438021
H        19.84162418559642    4.99859782636133   14.26450450201985
C        20.23673835032130    6.93913492975292   13.44844897514067
H        19.44084038400617    7.42740015078623   13.99171832949862
C        21.04254179499341    7.66879288188265   12.59362084745728
H        20.87554128275009    8.73116882002823   12.47304606486859
C        22.07111731467850    7.06072521030240   11.88500108077071
C        22.94485762253115    7.91984546649709   11.00398239946527
H        23.66244108531805    8.46909065513270   11.62362036163612
H        22.35252617368542    8.65181827579865   10.44858321188107
C        25.47121049358570    7.70370018254276    9.61717023945625
C        26.68625119171623    7.03142105730554    9.60095704843729
H        26.70301773210697    5.96129524655118    9.75086751556722
C        27.86088150142717    7.72906178584019    9.37694730532940
H        28.80337481461202    7.20119496185344    9.36300031534442
C        27.82686501826837    9.09805262118922    9.17333354573378
H        28.74364053753093    9.64261050694318    9.00019642974134
C        26.61489298081137    9.77119955912566    9.18342162282761
H        26.58777432731719   10.83840386213987    9.01668431611611
C        25.43899173848553    9.07832276079849    9.39995471603236
H        24.49205289812080    9.60053375344737    9.39465603316422
C        23.12316161466632    7.01039422750784    8.25754764812596
C        23.89594074066618    6.84298077406858    7.11199456927129
H        24.95577715798251    6.65508791491786    7.20758042715195
C        23.30327743459268    6.89672401050718    5.86433102181514
H        23.90580917134227    6.76421315169663    4.97774985008773
C        21.93936255707131    7.11315705136399    5.75098610230038
H        21.47815447899091    7.15444062707941    4.77498519734695
C        21.16532365929714    7.26779415447091    6.88950000995526
H        20.10015475628712    7.42621941247760    6.80246994033823
C        21.75010078648541    7.20908436711626    8.14131009939074
H        21.13942732981299    7.30242452160177    9.02821492901698
C        26.66582987362109    3.05369839675062   15.20733454165904
H        26.59604220312174    2.24965322689438   14.48902014569207
C        27.67918334651218    3.05243069172976   16.14766516880014
H        28.39878391141895    2.24725419840616   16.15992158770019
C        27.77267300646711    4.08172710911440   17.06893910091500
H        28.56575097176302    4.08491091458862   17.80194839524148
C        26.83904861958019    5.10362416990294   17.05004564698386
H        26.90073121928477    5.90628864531249   17.77060303219468
C        25.82275888981406    5.10261663084407   16.11101546352262
H        25.09754458496984    5.90281943377285   16.10844618159826
C        25.72724876330580    4.08072388509001   15.17329610658919
C        24.65398904272261    4.06757300247463   14.13507877991674
H        23.72431344047643    4.51148902527084   14.49515353342289
H        24.44429931813387    3.04529759513913   13.81136671063886
C        26.85576807456420    4.40761161794624   12.38558493910705
C        27.11068021959075    3.38525881365025   11.47869225445531
H        26.31031000451446    3.00252244763123   10.86359809618979
C        28.38833929857621    2.86952536247649   11.35124765647049
H        28.57840660855956    2.08020392816396   10.63945700370768
C        29.41705066860268    3.36567145157757   12.13336469240727
H        30.41592255397169    2.96660352011734   12.03268965233091
C        29.16396005435874    4.37261226281558   13.05138151663138
H        29.96157999937269    4.75296134369323   13.67298912234005
C        27.88955190598923    4.89065961545297   13.18563256328143
H        27.69957055570585    5.66384300090378   13.91603001509691
C        25.29613572613053    6.70475855886910   13.17674367335032
C        24.31598652642215    7.25158650175026   14.00173629781836
H        23.49311632853262    6.64340864712791   14.34460369953034
C        24.37120200196870    8.58395398905722   14.36823337712831
H        23.60439415088670    8.99412461842886   15.00912622387395
C        25.39757443193617    9.39285738143741   13.90744800226315
H        25.43563368042237   10.43457384258443   14.18983070515859
C        26.37136601869060    8.85978229464628   13.07968816212847
H        27.17198720294416    9.48338771656438   12.70978131868374
C        26.32012954898110    7.52621571266085   12.71547063312714
H        27.08228403015460    7.12008478696548   12.06859085182492
C        22.11702464818347    3.35240947531751    7.86402818330773
H        21.52026120957155    3.68813609363869    7.01425685411826
H        23.17009580900499    3.55693493916569    7.67828789120748
C        21.83948575357230    1.90706995196556    8.23343581332523
H        22.61381037796217    1.55098311688366    8.91553794834387
H        21.83475197794388    1.27451233549023    7.34549019750662
C        20.49455184061161    1.91138139455827    8.95023296444220
H        19.70022363083162    2.18288114725491    8.25019045090982
H        20.26278276124604    0.93810662658402    9.38269992233666
C        20.62215301047420    2.95920076447385   10.04299835424006
H        21.18958167649840    2.57392610747676   10.88983172065829
H        19.67137619512073    3.36580201269534   10.38112341999810

