70
CSD_code = CERBAE | q = 0 | S = 0 | Stoichiometry = C33H29Cl2F2IrNPS | MND = 6
Ir        8.05707727992238   -0.23518794817455    7.48975314444806
Cl        7.55528195037803    1.66669421746748    6.05293770761550
Cl        6.35244912961003    0.33102305864904    8.98354825996449
S         6.54107685191832   -1.61598922275281    6.01625259301188
P         9.19287898590961    1.20703009754983    8.87793424720224
N         9.64223719886735   -0.80560623894519    6.36654132545599
C         8.62815073689364   -1.85889033437843    8.53622559142911
C         8.00770203265246   -2.40623824703309    9.65199307818144
H         7.13006719281008   -1.94546166109410   10.07847094874843
C         8.52632274259283   -3.53982052988081   10.24565530255535
C         9.66102764937574   -4.16834344269514    9.76410533305942
H        10.05766984482731   -5.05284539125731   10.23403023610290
C        10.27390954860983   -3.62377736318022    8.65428523085019
C         9.79074419927739   -2.47883368172772    8.01981504289860
C        10.36322886167494   -1.84777620614271    6.83769968115395
C        11.53754148686206   -2.23636323232980    6.19459374164874
H        12.12793134249114   -3.04824658654300    6.58097106726372
C        11.94742192556868   -1.57401715763377    5.05293831789749
H        12.85948577862504   -1.86533494509637    4.55475443939834
C        11.16367632058961   -0.54454553933369    4.55731802335981
H        11.43002698426719   -0.01540465351618    3.65718216338676
C        10.02239932893818   -0.19417190266964    5.25243870308375
H         9.38320222656010    0.60816422945409    4.91108095128702
C         5.05228575262572   -0.55725833955141    5.85807727608639
H         5.17904815976264    0.29935006689039    6.51749132762779
H         4.99942104969284   -0.21930645523590    4.82551436227450
C         3.88066996772057   -1.41982771014792    6.28931410330886
H         3.02761577480901   -0.79396225407334    6.54909740194053
H         3.58719758056309   -2.09618141236672    5.48273590184742
C         4.38006374509579   -2.21758228986145    7.48790401428309
H         3.66053609971169   -2.96994394111633    7.81070356055222
H         4.58307107362712   -1.53650181279163    8.31627525152801
C         5.67564428583891   -2.86979893144978    7.03770579476834
H         5.49565236197304   -3.72506276738102    6.38474679298596
H         6.32063049624163   -3.16658851998897    7.86065857507970
C         8.67339168274295    2.94055781841570    9.09959029940046
C         7.42426881188030    3.43300598993782    8.75143123918884
H         6.68942881864166    2.78296002979806    8.30588441181133
C         7.12299035364005    4.76704282954255    8.97066060796275
H         6.15115842124052    5.14541702834646    8.69111419263629
C         8.05867324428366    5.61103875542788    9.54151199750271
H         7.82103197485744    6.65144508636928    9.70844128825020
C         9.30431825208316    5.11955138189294    9.90146964526494
H        10.03690813100039    5.77351903433180   10.35179229355721
C         9.61328051038587    3.79177164899552    9.68209984392415
H        10.58506686464197    3.40757416726372    9.96345049680038
C        10.88852538804947    1.47617562258967    8.25598809382559
C        10.95407455353873    2.10828307060715    7.01481621510630
H        10.03515656591756    2.42699617154474    6.54187400084389
C        12.17330920385902    2.32959299619314    6.40557094516395
H        12.21424291649986    2.82049791009673    5.44457620806457
C        13.34186646019494    1.92033232657202    7.02858022780066
H        14.29694323741939    2.08362751918996    6.55159347057541
C        13.28379532092773    1.31368348442088    8.27124842113846
H        14.19414238170478    1.01165807850118    8.76842261017497
C        12.06364395547981    1.09316714302500    8.88867093369899
H        12.03701008255318    0.64346609796749    9.86961692655178
C         9.33448125891147    0.61874745889691   10.59303962948377
C         8.59219215964372    1.22752909293751   11.60002078817556
H         7.97187107021870    2.08096141822417   11.36798909527427
C         8.63274886010075    0.73161546970553   12.89074615908067
H         8.04880874610360    1.20717953029056   13.66461877202665
C         9.40964006824351   -0.37503757899355   13.18878638398981
H         9.43774075246802   -0.76271576835619   14.19606685168940
C        10.13870712566767   -0.99512701836127   12.18730288231628
H        10.73388403356427   -1.86822763157544   12.41149721528964
C        10.09315057721245   -0.51024864468041   10.89358376246484
H        10.63444087729167   -1.01938165136973   10.10981800714958
F         7.91733252681260   -4.05837774408039   11.33057194696622
F        11.38082886532687   -4.26027407526269    8.20400464452688

