34
CSD_code = CERCUY | q = 0 | S = 0 | Stoichiometry = C14H12ClI3N2PtS | MND = 6
Pt        6.13205715661077    6.23449451994203   -2.69502265266397
I         3.87928656062980    7.37436442332476   -3.50610431958931
I         5.98611745096878    7.29652661459146   -0.22468003716809
I         6.59307218338008    4.98899009222833   -5.03798117430529
S         5.04564012523410    4.08890212062977   -1.65042470714157
N         7.82118224890844    5.34232628629282   -2.06217483825828
C         7.83039565760769    4.06645844157379   -1.53867814346246
C         6.63591127341934    3.34777181909310   -1.36511297930580
C         7.49782258333781    7.65604687664529   -3.15955001678183
C         4.25381973031088    2.83964002447552   -2.74609075899105
H         5.01470374308878    2.48173550017914   -3.43941517758772
H         3.92248047953595    2.02809127435339   -2.09864337523109
C         9.05136918380257    3.45281303579000   -1.22167110850516
H         9.95441137455112    4.02713767623197   -1.35718175463038
C         6.68723970360052    2.04010843814559   -0.90135916822250
H         5.76894867797813    1.49338521247485   -0.75492134061003
C         8.78212706008162    7.19067495648694   -2.77945719586475
C         9.08238218491405    2.15584633746784   -0.76591796669069
H        10.02768130062131    1.69325328568069   -0.53007645665586
C         3.08427168055515    3.46850021768482   -3.47333436809358
H         2.55759849149100    2.70216995587172   -4.03740584818928
H         3.41981435029650    4.23021378922585   -4.17288364246256
H         2.38829070125011    3.92467219434596   -2.77218362469656
C         7.89873519935059    1.44347509823970   -0.61215482664182
H         7.91932678631349    0.42649319265091   -0.25303251850701
Cl        8.30118928324504   11.22138907624353   -4.66093774539897
C         9.90700324837100    8.00207459222642   -2.99204734820619
H        10.87468464887087    7.63570266465822   -2.68938654326254
N         8.90127278233283    5.96752025159534   -2.21608809629715
C         8.47783869188606    9.68278496575359   -3.93332928967987
C         9.75109890433705    9.23815692631055   -3.56763189688704
H        10.60343533827476    9.87552016976875   -3.73961821521352
C         7.34361404074187    8.89877677547430   -3.72350869857288
H         6.37467717397525    9.27708319412811   -4.01589416618558

