65
CSD_code = CERCOR | q = 0 | S = 0 | Stoichiometry = C26H31NO2PReS3 | MND = 6
Re        0.47509575505758    5.73911104382571    4.37859668516634
O         2.08301100956745    6.02340643280844    4.65389785374697
S         0.64640821208115    5.32976567911136    1.98545033334980
S        -0.26930730058217    6.51049621628206    6.60304265249410
N        -0.11420995660000    7.83425580564268    3.76556564002826
P         0.45451528706792    3.37930669946260    4.84400799457340
O        -1.39720073132022    5.30782532843148    4.14729079761654
C         0.34251066067178    7.05181015322364    1.43916247495185
H         1.30571685607492    7.55411336455300    1.34480061741251
H        -0.10932077428577    6.98261899621311    0.44894921117815
C        -0.60614712864860    7.77914433793718    2.37855956415543
H        -0.80637970200944    8.79090555734176    1.99847428691976
H        -1.55367039016801    7.22948438382116    2.38961692176464
C        -1.19519278074469    8.27691801258064    4.66170190635486
H        -2.05012783923507    7.61085023093870    4.50021262175529
H        -1.51034311832296    9.29894490179803    4.40600505064018
C        -0.81071372307800    8.19612609397829    6.12918272831890
H        -1.68077370785059    8.42047478614093    6.74751423624221
H        -0.01271101326406    8.89191741391033    6.39074083383898
C         1.09024562914663    8.67958061228047    3.89948926677640
H         1.82234778810909    8.33502964213957    3.16476865069505
H         1.51897172869055    8.48574569933261    4.88667383092165
C         0.87816344689575   10.18013678555252    3.72394351956892
H         0.41835974500232   10.64516560978747    4.59583144160939
H         0.28129010915668   10.41081889273579    2.84189339171106
S         2.45940637316445   11.02885280759133    3.39478480108355
C         3.42679916370750   10.67377398498135    4.90148738374218
H         3.55257179467572    9.59454590571466    4.98320205259713
H         4.39612112357273   11.12408095735150    4.68826133043951
C         2.82302057159005   11.27208751634022    6.15732485114410
H         3.51159090546388   11.14284846259639    6.98990606479479
H         1.88577305601749   10.78481829698558    6.41867046788795
H         2.63722121850673   12.33526578411647    6.01943330422909
C        -2.05119729479794    4.22719708422901    4.45170861361108
C        -3.44853475605463    4.12366007124250    4.39115013011770
H        -4.02456110543376    4.97547775083317    4.05866706076547
C        -4.07118106912480    2.95214290327405    4.76561999986886
H        -5.14877195786505    2.88986842523502    4.71686132882876
C        -3.34279522058947    1.85670029684483    5.21397278202353
H        -3.85373139424360    0.95504383988199    5.51485496341712
C        -1.96301161282355    1.92675154462734    5.27540323211774
H        -1.38044063127903    1.08795066991296    5.63156883030134
C        -1.32061146082641    3.09044133496798    4.88373634940508
C         1.16294772013338    2.66997095287569    6.35229681194585
C         1.35039055653118    3.48185455441410    7.46520579955814
H         1.10816578277616    4.53324135859016    7.39777904449563
C         1.85270532300975    2.93644556246483    8.63283605658628
H         2.00109687056278    3.56505639210549    9.49776645548751
C         2.16806536029525    1.58820519724401    8.69114966042135
H         2.56147216480641    1.16433164849202    9.60336270001112
C         1.98746283213839    0.78143696546838    7.57876617061696
H         2.24029583810952   -0.26783935828954    7.62436177066788
C         1.48748999995590    1.31777299761896    6.40606790242712
H         1.35798594765101    0.69581238011202    5.53094144783299
C         1.16612058889730    2.39440245443032    3.50141692888465
C         2.48168487041305    2.69554433582264    3.15528214184089
H         2.98663419748913    3.49424497658028    3.68468974508059
C         3.09695367809909    2.00033923950899    2.13315714735628
H         4.11415289006290    2.23322989022007    1.85626255045278
C         2.40140475447650    1.01162795990798    1.45287661697071
H         2.88062999078580    0.47193133214142    0.64928973707795
C         1.08954824732754    0.72277777143416    1.78894782583041
H         0.54765683212096   -0.03910421652804    1.24766032140868
C         0.46404230988482    1.41478399665847    2.81216916784821
H        -0.56491252053677    1.20367329210403    3.06872793893415

