65
CSD_code = CERDIO | q = 0 | S = 0 | Stoichiometry = C27H32N3O2Re | MND = 5
Re       -0.23168472771297    5.82130375584434   17.04912451230817
O         1.28953565092628    5.25486503931837   16.59505730057574
N        -1.02305872237175    6.88005308179058   15.58779093762452
N        -2.13488813797924    5.01737127549178   16.80473900166038
N        -0.70526057846694    5.13928484482309   18.83618577567263
C        -0.77750860106023    8.22654443653378   15.25834189707021
C        -1.69739060986288    9.22590019574276   15.61271650356713
C        -1.42005527187269   10.54519435443664   15.29681801365140
H        -2.12909447616039   11.31198269504551   15.57783549652079
C        -0.24992742269234   10.90913234156020   14.64612124317753
C         0.65196279182255    9.91308721232216   14.30777039109613
H         1.56864871583242   10.17858180409527   13.79897650460900
C         0.40651870359519    8.57875466690420   14.59414508268349
C        -2.95635361692932    8.89580721579766   16.36142448426929
H        -3.79587461282014    8.74087717428889   15.68031101474363
H        -3.21348033471395    9.71231942158678   17.03168550079183
H        -2.81950230628969    7.99613839378382   16.95882167626046
C         0.02157479632436   12.34987406194948   14.32999295491630
H        -0.77635822450188   12.76202590286140   13.71320045974021
H         0.96361778300506   12.46092964821918   13.79904608035022
H         0.06869023331884   12.93590165105498   15.24724429804593
C         1.38053874226796    7.52552920646039   14.16530001948990
H         1.59764964991149    6.83980567243291   14.98526398567776
H         2.30683621184854    7.97784069606649   13.82056626889136
H         0.96106175467644    6.93621648563519   13.35012252653402
C        -2.08408610077217    6.25839608384671   14.81185555354077
H        -1.65502246466953    5.74055832517688   13.93640849411428
H        -2.79530842449641    6.99895719933398   14.42563763031086
C        -2.78422634140540    5.24079199967204   15.66176892857975
C        -3.96371889227719    4.57241547351393   15.37633649174437
H        -4.48627572755879    4.76125505421988   14.45207937922306
C        -4.45201180383990    3.66449208763514   16.30646107169538
H        -5.37480478279039    3.13850385976829   16.11437721877400
C        -3.75743474931197    3.44127206850596   17.48774663911463
H        -4.11725967102302    2.73974863185221   18.22355354520861
C        -2.58504924989971    4.14591717674692   17.70794034441576
C        -1.68790583826439    4.07002251950919   18.90671512271289
H        -2.27375253034248    4.11499886649656   19.83329759296868
H        -1.17945037015286    3.09013981933252   18.89760218595983
C        -0.29782127407179    5.63431871929359   20.08955987539030
C         0.99838078474429    5.36841469748851   20.55772658523583
C         1.39894123004935    5.89303396667375   21.77579153606066
H         2.40010841397586    5.68973868150603   22.13081135662321
C         0.54751595150311    6.66287636101705   22.55488457914786
C        -0.73176463539440    6.91113404670098   22.08313916991371
H        -1.40624279473546    7.51843855712547   22.67135176783694
C        -1.16754582601289    6.41563213568894   20.86438102073252
C         1.92881542483790    4.50194323752525   19.76705031371256
H         2.92837135498336    4.52408294746858   20.19325630036895
H         1.97326515762765    4.82795989247568   18.72701040656829
H         1.57549815206724    3.47111606096383   19.77023141009972
C         0.99399842216686    7.19492661490755   23.88402340953103
H         0.45647947989864    8.10573437008056   24.13723296568292
H         2.06127243090863    7.40428752261487   23.87865688992816
H         0.79961412866321    6.45937493111815   24.66590966221909
C        -2.54750936226923    6.75849528395074   20.38206249336533
H        -2.58911008385310    6.73592255918292   19.29455499154406
H        -2.81580005193037    7.75952992955225   20.71016111141621
H        -3.29055048251282    6.06250225664138   20.77700878614829
O        -0.58028564763488    8.26368062329419   18.38572997261302
C         0.33707065369649    7.61858593449469   17.95546651792540
C         1.77315914162125    8.06393788752327   18.06873739831649
H         1.85509133267196    9.06083765405028   17.63860764065985
H         2.45518912676784    7.38392217025657   17.57000169103526
H         2.01906852894475    8.12348255875405   19.12807001962653

