70
CSD_code = CERDEK | q = 0 | S = 0 | Stoichiometry = C31H34N3ORe | MND = 5
Re        5.49800432454301   10.06565219375453    8.63554958723057
O         5.52604239431097    9.25109589206927   10.10192551897672
N         3.68215787866199   10.34400324145597    7.93800292190802
N         5.50367148743449    9.16963421392088    6.75468517174990
N         7.29537669326594   10.41027399870840    7.91972086271528
C         5.45027561196821   12.03271337229359    9.50026647578869
C         5.44492890281883   13.15544058779041    8.68110644478168
H         5.46986581836000   13.05081199245139    7.60615207164839
C         5.40719835410567   14.43663669465328    9.20437409933531
H         5.40183299899677   15.28628810233539    8.53598941310073
C         5.37419670139529   14.62878646858078   10.57239896302671
H         5.34251115045165   15.62719615217830   10.98417185496790
C         5.38110970563527   13.52541344749989   11.40509970530589
H         5.35640896785125   13.65650994078411   12.47764048065751
C         5.41851320833485   12.24614087845436   10.87613719103947
H         5.42567377468879   11.40291644931228   11.55204308904967
C         2.77463642084914   11.38484889375491    8.22525307886139
C         2.56106602890541   12.40513406047167    7.28745229512488
C         1.70466591395694   13.44889252887080    7.59715743028180
H         1.55177211443643   14.23558660480582    6.87063110721279
C         1.05240189275182   13.51358547524079    8.81832840842507
C         1.26434983161688   12.49284864835233    9.73213490277283
H         0.75711816164350   12.52528931261255   10.68640044930956
C         2.10535986361838   11.42688562588046    9.45678497524227
C         3.25658251178973   12.39844722386953    5.95438424825236
H         2.60966253528122   11.98344182809749    5.17870023907062
H         4.16776620938101   11.80251423699928    5.99376415733659
H         3.51574635656361   13.41330139581124    5.66013045143022
C         0.12345284386818   14.64929660587551    9.12732653610670
H         0.51219236155177   15.58405500638736    8.72893373346561
H        -0.01515497278758   14.75446797400958   10.20033682094975
H        -0.85258367947648   14.47128434408543    8.67374690059104
C         2.26887936418077   10.32156530175483   10.45310342223882
H         1.73738490894197    9.43080016909812   10.11698507511028
H         1.86861162891755   10.61583329389843   11.41941930782679
H         3.32021118400056   10.05786472701580   10.56638503613750
C         3.18139054594351    9.36551161255393    6.98180584775808
H         2.44979928543349    9.80572446246400    6.29176455799315
H         2.66572815708748    8.54753988836354    7.51315596444039
C         4.34190430457691    8.79229395720483    6.22533957787094
C         4.31277354197672    7.99482922914304    5.09222248345642
H         3.37157104594882    7.68800812281011    4.66449830672532
C         5.52104545640138    7.61169239197604    4.52465201867307
H         5.52777288836392    6.99550095306483    3.63823877906996
C         6.72011680473424    8.03703909673354    5.08149989873832
H         7.66758236217976    7.76346602132728    4.64518778711473
C         6.67325988383074    8.83259010440915    6.21539353618497
C         7.81989040497767    9.44388396703414    6.96350470390746
H         8.36074037239768    8.64311950180231    7.49620183320984
H         8.53569621317999    9.90215243838766    6.26900725427084
C         8.16486372438955   11.48745987668274    8.18723297145349
C         8.83781565227877   11.57151952976966    9.41466087450957
C         9.64339587912309   12.66958629513993    9.66961784354578
H        10.15358144024497   12.73345813285025   10.62074326180028
C         9.81676909193165   13.68251116149364    8.73937074423538
C         9.16025361778447   13.57762240280229    7.52302748445378
H         9.28278092058869   14.35825749393244    6.78425565918217
C         8.33795281991841   12.50121869303001    7.23372886327664
C         8.71578449921292   10.47680821882380   10.42810708562333
H         7.67122849324679   10.20052544036787   10.57150568922957
H         9.13641381899618   10.78848628323864   11.38024617400231
H         9.24956423624403    9.58866459710764   10.08913283543944
C        10.70700453036118   14.85482266669190    9.02472437080309
H        11.66382361886229   14.73457199369811    8.51493698920860
H        10.89818901294087   14.94505326299496   10.09093532158071
H        10.25281702524269   15.77757925951456    8.66940515153050
C         7.63371284737390   12.45362694839852    5.90583775863962
H         7.33608960038981   13.45521486094523    5.60207968941614
H         6.74458836701307   11.82592168675708    5.95839490322953
H         8.28941008400838   12.05338256535539    5.12976135239324

