72
CSD_code = CERDAG | q = 0 | S = 0 | Stoichiometry = C32H34N3O2Re | MND = 5
Re        1.96576758147593    1.91377856306844    9.49307281035397
O         1.24992561135959    0.61139703013090    8.69735577771660
N         0.71644200506277    2.64711208858573   10.83455529331909
N         1.91739862647441    3.94740543275365    9.07984976887260
N         3.72399689018626    2.27322461790534    8.67752619661105
C         2.89974546793541    1.01066247818380   11.13847453785606
O         3.60781521316682    1.80531189754662   11.70805568396718
C         2.62201542317900   -0.33826674551674   11.66800052399333
C         2.88596227727844   -0.55615449049243   13.02209690876323
H         3.31251587802628    0.24774148550402   13.60240637187731
C         2.58498063207060   -1.77087807894767   13.60464519570145
H         2.77910695138551   -1.92619478855520   14.65591479547705
C         2.03428559424363   -2.78794931038364   12.84167260670674
H         1.79717651159299   -3.73816788264618   13.29834190659865
C         1.78842855922760   -2.58593139125284   11.49234743382268
H         1.36464689482882   -3.38200144417072   10.89809943626328
C         2.07364770426222   -1.36735226479747   10.90709344878542
H         1.87098814878599   -1.19708184251304    9.85964139247354
C         0.48293451669165    2.14028117570396   12.12705631281093
C         1.07011272968111    2.73865781635799   13.25174192803885
C         0.90152556217973    2.15383479047079   14.49756915731582
H         1.37283089770066    2.61265731514287   15.35640123324544
C         0.16970792473173    0.98954717417626   14.66321796932006
C        -0.42801281374167    0.42325218809320   13.54663983268569
H        -1.01167381832060   -0.47957100247722   13.66186939533406
C        -0.29547528108646    0.98151080055326   12.28713435077186
C         1.91836103516528    3.97169950715085   13.12872903642126
H         1.32136709616977    4.87671253448059   13.26137741747098
H         2.40053268766185    4.01064249255345   12.15361114035522
H         2.69452987497252    3.96803492340145   13.89030976426785
C         0.01164854902077    0.35509605123557   16.01246294310739
H         0.73041945169413    0.76083259423406   16.72017635450756
H         0.15279019360052   -0.72190200590422   15.94399347676220
H        -0.99095506030693    0.53672717994849   16.40094391296740
C        -0.99859753797400    0.36860266593368   11.11659877886461
H        -0.31898899282528    0.25296468073905   10.27208576553065
H        -1.81865751414783    1.01023309269033   10.79385999151486
H        -1.40444689940733   -0.60388216386531   11.38238574892271
C         0.06533600594966    3.90876247845276   10.53077043518680
H        -0.91490141693247    3.72462661801585   10.05657831490821
H        -0.12619731883970    4.49898494649401   11.43572684817496
C         0.91299555979249    4.68003770315365    9.56246795235727
C         0.74396878729645    5.99582879597734    9.16251700615839
H        -0.06693822887633    6.58512820701501    9.56023411341866
C         1.64091333464974    6.53091064599798    8.24760469525266
H         1.53887977456253    7.55703237165799    7.92833895492284
C         2.67244099622037    5.74718498074970    7.74818049741309
H         3.37788951358495    6.14049405811922    7.03365019126195
C         2.78265504114803    4.43939686202798    8.19206972283075
C         3.81001651447331    3.42277419217849    7.79008598582137
H         3.59161899402724    3.10860009765561    6.75435239563061
H         4.81475222455000    3.86154440399652    7.78428586784251
C         4.95855736230561    1.66304564450580    8.96500481574001
C         5.91268572413912    2.31818170517454    9.75719507580893
C         7.10703858039864    1.67801916939035   10.05217173214243
H         7.83278779244566    2.18938979467655   10.67013036464605
C         7.38211265600616    0.40130271071536    9.59271987415015
C         6.42919074146820   -0.23552064957695    8.80955116094313
H         6.63232885222695   -1.23101059291168    8.43896143348837
C         5.23006016140802    0.37280065007803    8.48107209464799
C         5.66187858346008    3.68677345662879   10.32367503397106
H         6.11330941680216    3.76545258214605   11.30986193658974
H         4.59500713518800    3.87380190280353   10.42471960162800
H         6.09762260948123    4.46350276539892    9.69095922082710
C         8.67108290215980   -0.28866442120085    9.92673564004298
H         8.47515213601276   -1.21008930028787   10.47407597852403
H         9.30736622588902    0.34806732552917   10.53650862875368
H         9.21031347361205   -0.55060307917116    9.01675464348049
C         4.25921923917607   -0.32294628286537    7.57749211586436
H         4.29175123199675    0.12181548855151    6.58256348462368
H         3.23979731381314   -0.22084144825529    7.94853421616465
H         4.50630950830736   -1.37777094776744    7.49023536745905

