39
CSD_code = CERDIN | q = 0 | S = 0 | Stoichiometry = C18H15ClN4Pd | MND = 4
Pd        1.43935415536200    4.91382657912845    8.28391443079317
Cl        0.36707367430927    4.39666809140629    6.33620149167429
N         1.62223424925425    6.87631693254745    7.77695919041804
N         2.02202676580848    5.58887168639590   10.09812615859743
N         1.45941631125280    3.09121075775295    8.91218015655269
C         1.42951905735950    7.41401175797497    6.57088970538850
H         1.01266034044070    6.74920338000473    5.82197996988421
C         1.72717996644042    8.73435650508540    6.29203132620609
H         1.55227212658751    9.12939828675354    5.30458080028750
C         2.25018576505428    9.53077029018266    7.30143605632603
H         2.49466958722399   10.56626990765575    7.11998761426316
C         2.45194857792066    8.96989276590896    8.54936560869447
H         2.85604251175396    9.55447088924542    9.36179399716149
C         2.12662684620664    7.63398459591419    8.75920537150501
C         2.31504927315676    7.00236555606641   10.11393868849968
H         1.65107971989615    7.53206076709147   10.81736910429403
H         3.35193923750966    7.17953589220736   10.44437519205345
C         1.88319926703442    4.90874456514074   11.22689749272747
C         2.07280417608868    5.48450573375222   12.51538806049052
H         2.34310369285087    6.52679722852436   12.58831723731321
C         1.91337821466815    4.76845696821428   13.66638372863109
H         2.05574653924369    5.25777451274779   14.61937952907178
C         1.57461882271044    3.40740758092034   13.63317560173387
H         1.45327749252449    2.85857373789607   14.55366525311866
C         1.41513520024720    2.79631736692082   12.42472713265858
H         1.16972461583413    1.74806569272888   12.35338054943695
C         1.55614948797657    3.49670721498057   11.20374453493650
N         1.43550113766387    2.71780501377460   10.12436701779536
C         1.53861856934133    2.04723159381246    7.97503899098536
C         0.82874539439167    0.86073977741805    8.13415959181040
H         0.17527818495684    0.75150038489312    8.98623627433748
C         0.94841611458774   -0.13787313388819    7.18584769861521
H         0.38303114876201   -1.05104752547761    7.29733006242682
C         1.78384280103212    0.03118455351179    6.09412448205330
H         1.86844398766943   -0.74988463286119    5.35353583343115
C         2.51270135975340    1.20241532344217    5.94964345520940
H         3.16959442477927    1.32927901336519    5.10255117729681
C         2.39690752433329    2.20999970022699    6.88573876476527
H         2.96790367799629    3.13788468863214    6.79743266856502

