60
CSD_code = CERFUA | q = 1 | S = 0 | Stoichiometry = C16H35CuN5O3(1+) | MND = 5
Cu        2.42272786033504    3.73630178370006    0.92985082936863
N         0.70064141635612    2.78097881063818    1.18942319884297
N         3.36316002703692    2.72099363002047    2.59830204993158
N         4.12379034242612    4.80297326905020    0.82081490829761
N         1.33779246806317    5.52899065649856    1.71124968659684
N         2.66675634170719    3.21272034240657   -1.64452897736725
O         3.26736316878520    2.54958239977098   -0.76978832055895
O         2.77077791962147    2.98677530242677   -2.80914230133668
O         1.95747514851693    4.15328284274895   -1.20552407489429
C        -0.13379739651475    3.60616914302629    2.05757106678250
C         0.81206421171992    1.34772404918558    1.49421051003635
C        -0.56263052450738    0.67260874604718    1.54378695808990
C         1.57602014306451    1.07186239064122    2.79396180906543
C         3.10493069475402    1.27543537351335    2.76686227764165
C         3.65804204176633    0.79207187028897    4.11529840599594
C         3.74844654819504    0.48249256975451    1.63166477366377
C         4.75693069170862    3.14471061447693    2.46931814064433
C         4.78484407444806    4.62481393721258    2.10682116231101
C         3.95474105663743    6.14521910008391    0.29726395344156
C         5.18922952625934    6.69801200262443   -0.25867952054495
C         3.14979932345437    7.09508643760521    1.20574670123623
C         1.61944785606307    6.88633921637811    1.19141693392377
C         1.07285441981589    7.04323521841568   -0.22738773152885
C         1.00038653937760    7.95431929750833    2.10345033381017
C        -0.04607132116113    5.06147978622558    1.60643444869871
H         0.34976685441789    2.87711488305389    0.23929508977501
H         2.96110169977485    3.19344276132250    3.40656203485753
H         4.61513692938564    4.23587321971928    0.13223029039269
H         1.59169943096728    5.53070704540763    2.69851080013329
H         0.22333659323619    3.51397207984418    3.08560150192433
H        -1.18288872411617    3.29101745168259    2.03044581328852
H         1.37481435974345    0.91626382894702    0.66209271521486
H        -1.10399566704163    0.94266677579556    2.44698950959495
H        -1.15813855507785    0.95282768758976    0.67787905903573
H        -0.44431284391244   -0.40659456772212    1.53049242585951
H         1.39903061672167    0.02649181188781    3.04687046427537
H         1.14933857750161    1.66483022351658    3.60527575216835
H         4.73631583627984    0.91643856374343    4.16223140303207
H         3.44330537526422   -0.26395635737568    4.24720007871493
H         3.20752586637459    1.33558055051380    4.94414702328654
H         3.63131609958053    0.99490928985583    0.68136943762909
H         3.28713107733833   -0.49781500599293    1.56006469248670
H         4.80805071534147    0.33080601433986    1.81718531535869
H         5.32876640964160    2.98612937920391    3.39078864568896
H         5.21512676296069    2.56610281375556    1.66701967332621
H         4.25047995653493    5.19423730867008    2.86898523941767
H         5.81899521873202    4.99086307919541    2.07176714745158
H         3.30792689768005    6.01369231135656   -0.59640827681501
H         6.10616439376912    6.13722633244273   -0.23813665944459
H         5.14248011796994    7.53522811927628   -0.93054815934779
H         3.52325051023632    7.02993405791268    2.22713837341903
H         3.34632046161466    8.11092462154005    0.86400193743158
H         1.55037115154834    7.88707935028155   -0.71707048826404
H         1.24313502454854    6.14668546742673   -0.81691152271866
H         0.00510033048212    7.24171464538996   -0.20894728404500
H         1.39389427395201    7.88398027756052    3.11617224181327
H        -0.08032836862967    7.85218247526469    2.14470946205369
H         1.22240074837562    8.94657976125047    1.72247229918711
H        -0.73792473989950    5.66353957623378    2.20702782626121
H        -0.34531596922695    5.12244537686182    0.56039891540958

