36
CSD_code = CERFUD | q = 0 | S = 0 | Stoichiometry = C17H12MoN2O4 | MND = 6
Mo        4.89100614576085    1.45375506654602    2.92487877568365
N         5.55204968206288    3.37079707932588    3.34965926975788
N         5.90979434455756    2.05830835174676    1.16563482681138
O         7.40083474456539    0.06053772764190    4.11118240111730
O         2.16863956245186    2.55321779470696    1.90978169038428
O         3.45549975003164    0.97566285537474    5.62175549096441
O         4.03527199996921   -1.33394631150637    1.89103680749930
C         6.14941426012912    4.02290637139747    2.40895946001912
H         6.48476718198825    5.05332235016704    2.53190512573652
C         6.38788347221876    3.32340619820939    1.18306672413169
C         7.06348678822715    3.88366665448789    0.09235878428568
H         7.42551839180635    4.89849191678034    0.15664168855985
C         7.25157316412045    3.12460924811035   -1.04239881903184
H         7.76731689170449    3.52776654944882   -1.90011802813749
C         6.75887414727724    1.82197755204915   -1.05348015217206
H         6.88351609309853    1.19180208813560   -1.91927942672560
C         6.10175772454967    1.33969436940265    0.06347415457675
H         5.70835398258631    0.33076285530514    0.07790257911532
C         5.26185071381258    4.01825532209534    4.54888125165049
C         5.60634128008934    3.41888930556395    5.75813625257562
H         6.12826282566787    2.47120954462315    5.74983909377286
C         5.30714214779717    4.04474666510039    6.95138643881033
H         5.58680538681768    3.57113584029609    7.88078257629909
C         4.64489781842462    5.26708896918025    6.97547803860826
C         4.30248283435848    5.85883452940746    5.76440071406159
H         3.78169794141470    6.80550401976253    5.76371617142429
C         4.61756798487901    5.25558075801124    4.56336821202664
H         4.32243947127210    5.71391170262080    3.62893884906758
C         4.29970353642517    5.93950192335167    8.26748681902197
H         4.77092524846777    6.92027063116877    8.32282276364315
H         4.62945968273643    5.34617213656464    9.11589125849224
H         3.22288715783033    6.08467563736348    8.34187128579752
C         6.51195194859046    0.60995179444148    3.64932097858755
C         3.19132055913281    2.18127826203663    2.25601902339348
C         3.99163403563488    1.13315894361672    4.62187432612743
C         4.34277109954172   -0.30460470253551    2.29132459406114

