27
CSD_code = CERGUC | q = 1 | S = 0 | Stoichiometry = C9H10AuCl2N4O(1+) | MND = 4
Au       -0.88259579539131    8.10253225999463    5.03189234071338
Cl       -1.75493841548390    6.83420461040302    6.64207095331891
Cl        0.89330409573248    6.76387901674043    5.16033391091369
N        -0.01902873311519    9.24059943613319    3.55627359867552
N         0.38126661932988   10.84386542471095    2.10742601685506
N        -2.54485411172286    9.30710608789686    4.96857462201929
N        -3.92521266757504   10.95497402920206    4.51147900046188
O        -2.06513084596818   12.08116321436017    2.72967855176187
C        -0.50438198512009   10.36972450499628    3.01730822319023
C         1.43021967393617    9.99783401610099    2.07644904189034
H         2.27626889871511   10.14173748309394    1.43481057719807
C         1.17693966294778    8.99936256789615    2.98236189161023
H         1.76677478245256    8.14640962806351    3.25324495488942
C         0.26164677469303   12.02763597848723    1.30346881717176
H         1.14790383095911   12.12403421563489    0.68022800607365
H         0.16014223520130   12.90999540549114    1.93619716044988
H        -0.62592982643011   11.97301712654520    0.67206549859905
C        -1.77693402706901   11.04073469940572    3.29401666803116
C        -2.70512735536637   10.42718772849238    4.24704704203722
C        -4.53414283644004   10.15216901110606    5.40684889395550
H        -5.51809651139727   10.34281246481024    5.78596042557310
C        -3.66943821013157    9.12558283040610    5.68994291890606
H        -3.78107769482896    8.29133361286626    6.35353719789024
C        -4.50022342180642   12.15025171746901    3.96135659063087
H        -5.50087372788860   12.28165293918674    4.36722705863082
H        -4.55099696404822   12.08506367899556    2.87398370352145
H        -3.88728344418733   13.01763631150408    4.20961633502674

