32
CSD_code = CERHAJ | q = 1 | S = 0 | Stoichiometry = C10H14AuCl2N4O(1+) | MND = 4
Au       11.93213231126036    0.68201280588223   15.70850343618402
Cl       10.03125131783784    0.87631700714277   14.57849999738414
Cl       12.62962289332541    2.63231374788150   14.90699846566548
N        13.66990665629657    0.45700967268231   16.77634205225703
N        14.76127725010059    0.03293979549238   18.62075389629612
N        11.31930377261348   -1.08906414560499   16.52917879576648
N        10.91949116937915   -2.37017247142931   18.25282605770438
O        11.38213933561941    0.98711953319897   18.37009757498298
C        13.55269044618746    0.07413649064285   18.04120019186557
C        15.67475319812241    0.40093824983904   17.67334309492484
H        16.72414882627214    0.44671703964339   17.87962313523742
C        14.98603664812533    0.66911785770397   16.52756875582723
H        15.33012670656843    1.00186714362231   15.57040388095444
C        15.06543584934850   -0.32255082385134   19.98270656333654
H        16.12707715082679   -0.16480410404083   20.15969165859165
H        14.83298902619970   -1.37196083171510   20.16954155547959
H        14.50055762096633    0.29930997794517   20.67787926983303
C        12.18343511450751   -0.15600591171503   18.62133031937658
H        12.22985425344448   -0.38567135455429   19.69458654094548
C        11.50252948013287   -1.23904084856347   17.83518001201501
C        10.35216059789445   -2.95857453953198   17.15862365272187
H         9.82231963970859   -3.88678890835482   17.21985621100452
C        10.59966916188520   -2.15049883658986   16.08874497323589
H        10.31151344797679   -2.24687200470886   15.06244337870252
C        10.86798560695407   -2.88175948427999   19.59761779425347
H        10.20681450117793   -3.74528857577315   19.62147823870315
H        10.47732622548252   -2.12533683401088   20.27851835058558
H        11.85902513256678   -3.19201597266443   19.93280380028972
C        11.74364947986687    2.15558016844496   19.09093353999535
H        11.01543117224485    2.90916034335324   18.80171277927467
H        12.74623595736257    2.50132625494090   18.82519960799130
H        11.68091004974826    1.98043955897224   20.16871241861603

