47
CSD_code = CERJOY | q = 0 | S = 0 | Stoichiometry = C24H19MnO3 | MND = 9
Mn        4.30888712218081    6.23906403246074    3.97547811809554
O         2.65939121594546    4.93032315899065    6.00287226778886
O         5.57229653185991    7.57487007964613    6.25383821464141
O         4.28757631631596    3.39527173539451    3.27061317954701
C         3.32212555699619    5.44187922984847    5.21101960672653
C         5.11497914925981    7.04125448801585    5.33838868559749
C         4.04255386565576    8.18749913178094    2.93042898797981
C         4.76863446888499    7.29265163628447    2.11270454504260
C         3.94780627325397    6.16849620158348    1.83533985953379
C         2.72743057095233    6.33990798678391    2.50931595273493
C         2.78865664763133    7.57193962279067    3.21455925248101
C         4.42735160822057    9.59586044784303    3.26503776990067
C         4.89956685061188    4.31261155287801    3.70240274949786
C         6.15952549247712    4.86949465873340    3.96324350342437
C         6.74372313391735    4.68694587655434    5.32126342410082
C         6.01957417265170    3.86589154977953    6.20107570097269
C         6.46141868604989    3.58725496310814    7.47431099316449
C         7.66243642604412    4.12352118796526    7.91029716328087
C         8.38225893662647    4.93427198368964    7.05922696712141
C         7.95038218318945    5.23877082230955    5.76899747086925
C         8.85337802396767    6.15409911613619    4.98316232445078
C         8.19687577192673    6.93313132476669    3.84246531939344
C         7.98266691717039    6.02747992536563    2.67463883598292
C         8.75465592869655    6.14471919703729    1.52810614778755
C         8.58390568520520    5.28202121688914    0.46045335027747
C         7.63749853752078    4.27454041772082    0.54168815826385
C         6.86074093832424    4.14560853400720    1.67715084738648
C         7.01831459288765    5.01894079472012    2.75487101957299
H         5.70787566138866    7.51473678347711    1.62266609554570
H         4.17467668073970    5.39251067163706    1.11575123122410
H         1.85167124552018    5.71506474137500    2.40722360803283
H         1.95469996047051    8.05878614953486    3.70462303336354
H         5.50928620498792    9.71280704979364    3.28993667396812
H         4.01918454743773    9.89850007664122    4.22772584051917
H         4.02960065801287   10.26704986523082    2.50041210684937
H         5.08704416347864    3.43308276227741    5.86339125003465
H         5.87575738775181    2.95296118228625    8.12159796334551
H         8.02842707995592    3.91632836720865    8.90424507434723
H         9.31517482869479    5.36036901786529    7.40076981448175
H         9.28959221075046    6.86773584809364    5.68607438890749
H         9.67912380394742    5.56231172591652    4.57171275465893
H         8.84988729460792    7.75974805639536    3.55550987164796
H         7.24527228125191    7.34785372715294    4.18633031712709
H         9.49696464085580    6.92876148418735    1.47193256051480
H         9.18843712162756    5.39162373276357   -0.42755280422579
H         7.50364856777590    3.58696657344218   -0.28023426047967
H         6.13556405632011    3.34728131163798    1.73313406452049

