106
CSD_code = CERKIV | q = 0 | S = 0 | Stoichiometry = C55H46IrOP3 | MND = 5
Ir        7.66014302055863    3.94001328582076    2.91038040966718
P         6.86478702287142    2.29420076425182    4.40170729086719
P         8.42211526001374    5.96782479514394    3.79923430286718
P         7.04718917895948    3.76485945201686    0.63668349102749
O        10.35165051789123    2.61567680086942    2.55166522840195
C         9.32044034184974    3.12942078807593    2.68269094195772
C         7.04390586901996    0.51059740748595    4.01667206721518
C         6.69509917395857   -0.46589698165881    4.94617905356908
C         6.82459135723344   -1.80318995364420    4.62447516889902
C         7.30293693753580   -2.17892423295350    3.37784547855636
C         7.65416420255607   -1.21222549258605    2.45197070639944
C         7.52571346199101    0.12770641469968    2.77330390154049
C         7.55536029289805    2.22255948949431    6.09798658613334
C         8.94430305955532    2.18736284873019    6.18594256537439
C         9.57045657262545    2.09213176741249    7.41311608880840
C         8.81197310714577    2.03824345066965    8.57207543433186
C         7.43049503087365    2.07509375370051    8.49256769512690
C         6.80072347658521    2.16319162617717    7.26301589574997
C         5.07630906260820    2.40772947083281    4.71914117163491
C         4.16071038042171    1.50703692059947    4.18876495403032
C         2.80257120229105    1.72101281672454    4.35417371000264
C         2.35009178550025    2.83466924219034    5.04016963618442
C         3.26003535745548    3.74578897602228    5.55577892680668
C         4.61450612986466    3.53982080178952    5.38815097727145
C         7.87893835589526    7.53160588248037    3.00103387119419
C         6.92141498654226    7.48364221629611    1.99514897911929
C         6.49671848486598    8.64355645026266    1.37357782070917
C         7.02866032582565    9.86496166672783    1.75086824452036
C         7.98104181595271    9.92085462806449    2.75603717676303
C         8.40613740660656    8.76244447554083    3.38007476449742
C         7.74266702590051    6.20107658406063    5.47396480029646
C         8.31778472307722    5.49931959454849    6.53157959764099
C         7.74411743532096    5.53344378741161    7.78709619592269
C         6.57597662596335    6.25076598272408    7.99592183013465
C         5.98808050165812    6.93354654488765    6.94395752198086
C         6.56492816870594    6.90909355855238    5.68634899692335
C        10.19374121789159    6.36810540800308    4.04243569822778
C        10.69593934727367    7.04316332482602    5.15083278952003
C        12.04562430736622    7.33548231323066    5.23430471848247
C        12.90695782501281    6.96612634522055    4.21458473406413
C        12.41421228535928    6.29695273787445    3.10658190252637
C        11.06719877140885    5.99833747620433    3.02481120284561
C         7.90318419541148    4.76503466131468   -0.64035708605553
C         7.73485758602452    4.50207290020327   -1.99788886896946
C         8.39539431479736    5.27039591364584   -2.93758316454770
C         9.22734076981092    6.30457527663079   -2.53514360349537
C         9.39997681429075    6.56857000294298   -1.18724083659710
C         8.74138482233215    5.79785056460326   -0.24583941772314
C         7.23890203309308    2.13666131993783   -0.17982140801227
C         6.19146900513702    1.27037301211514   -0.46713736079636
C         6.45178880766911    0.02272727220414   -1.00784104766813
C         7.75342916548236   -0.37316364821028   -1.26292133525679
C         8.80415248772650    0.48524560309828   -0.97529014118292
C         8.54848175074787    1.72866059347773   -0.43373951063288
C         5.29648780037615    4.15372317958032    0.30292765691241
C         4.86923159692212    5.13467368544041   -0.58261812679202
C         3.51774062338772    5.40954865480510   -0.71026365492331
C         2.58678448650245    4.71717989257604    0.04441185620812
C         3.00953141482358    3.75131092997971    0.94518229303505
C         4.35589560218605    3.47864004209074    1.07892716933069
H        10.68212122072878    5.46359163936124    2.16651123040269
H        13.08123045187797    6.00353783747310    2.30892282660545
H        12.42662674785050    7.85710921577762    6.10091102458408
H        13.95986711496955    7.19684913108857    4.28543349197382
H        10.03467618218591    7.33636186705963    5.95456474730831
H         6.50759953626416    6.52606948032709    1.70551551811528
H         9.15027209098213    8.81567418358429    4.16184859577451
H         5.75100686659350    8.59163667893132    0.59334383255339
H         6.70306795702753   10.77291163893369    1.26423097731300
H         8.39570696771767   10.87310805628814    3.05467685010689
H         5.58745871923990    5.69140898432592   -1.16797562677160
H         4.69744971788950    2.75661138578604    1.81009536164804
H         1.53441297880563    4.93871617382857   -0.05832947610118
H         3.19170073390273    6.17442171248798   -1.40088467641206
H         2.29090057893310    3.22121889948318    1.55384761678914
H        10.04777848950413    7.37205861016802   -0.86740954993511
H         7.08622721888498    3.69534097960309   -2.31205659273105
H         8.86978741765710    5.99118563734062    0.81249844756626
H         9.74168184321884    6.90106342111895   -3.27447152178417
H         8.26252034064244    5.06330735736711   -3.98982018573761
H         5.07234486927341    7.48542837976262    7.10258749234621
H         9.21689529468407    4.92238748203577    6.35863104618873
H         6.09773153274320    7.43074874168514    4.86258882704700
H         6.12211341811463    6.27094328909721    8.97604888148099
H         8.20210119696197    4.99168056046238    8.60194126889298
H         5.72111854231506    2.18514826619747    7.21579711959560
H         9.29779455353370    1.96798676899726    9.53462805505882
H         9.52922984131961    2.24051234675570    5.27646605136360
H         6.83608766591801    2.03154244365130    9.39432703618480
H        10.64931076237242    2.06331418863817    7.46945194876855
H         8.02731574652358   -1.49578900776343    1.47860928190325
H         7.79847956987176    0.89021675149060    2.05639840134715
H         7.40194893984700   -3.22626825210040    3.13213928153926
H         6.32139509594442   -0.17384390489072    5.91799041329138
H         6.55207664772377   -2.55841398823251    5.34780616797179
H         9.36453847551558    2.40037452864577   -0.19908073544760
H         5.63106369280829   -0.64398972984567   -1.23115364198702
H         5.17118535788023    1.57038375675359   -0.27578653071340
H         7.95070822653233   -1.34828872771133   -1.68431555738459
H         9.82234134590018    0.18069567338164   -1.17009125995550
H         4.50854505199551    0.63932795566782    3.64392606825641
H         1.28962795398054    2.99916321499102    5.16585250381002
H         2.09550837165530    1.01525889876465    3.94097836308331
H         5.33076164280219    4.26006337785722    5.76194082686089
H         2.90992156441874    4.62254109404074    6.08150656473815
H         6.26321677486507    4.62392995615338    3.13164329385809

