64
CSD_code = CERLIU | q = 0 | S = 0 | Stoichiometry = C34H18Cl5N3O3Ru | MND = 6
Ru        5.14920089408697    6.50425206030848    8.92606517062697
Cl        3.75460614031958    5.17313652707640    7.62611612159409
Cl        1.79254762399907    5.57075466593697   12.07064333623429
Cl       -1.92647362749107    7.93687875623016    8.99289166229563
Cl        6.28124513781362    2.15890906262429   10.71023583267124
Cl       10.05898840319454    4.30070338485979   13.87652484861795
O         7.38808795647261    6.18912729947040    7.22849857967654
O         3.63518074110116    6.65956813625130   10.17163747076289
O         5.73863546464283    4.83560851059834   10.00434659670017
N         6.46442270651683    6.32299957776005    7.91162153520281
N         4.31790603026180    8.06742803052838    7.96303937572337
N         6.14044751717007    7.75094813073734   10.27083674828515
C         2.42778572416074    6.96031312109192    9.86463808081781
C         1.36383330768552    6.52026641533147   10.70319715214039
C         0.04913380898737    6.80292258872641   10.43412798038596
C        -0.26970677979433    7.58305000579772    9.31818911375193
C         0.71449430597473    8.07422825681620    8.49881783977508
C         2.06558162481905    7.77469959621915    8.74592451717279
C         3.06712279154440    8.36119426118406    7.91692430845874
C         5.31445098454184    8.76532203318740    7.25232903966407
C         5.54940831402085    8.50293561406064    5.88962213312483
C         6.62139443050067    9.08156747004817    5.27187472473479
C         7.50463201586278    9.92154463072689    5.98388988876115
C         8.63605243948502   10.49620225475616    5.36786434831663
C         9.48244931585525   11.30508055223644    6.07267097278369
C         9.23784205051867   11.57448291518934    7.42832218792303
C         8.14896214637193   11.03841570716409    8.05617672762357
C         7.25292028324750   10.20422484532118    7.35391030154958
C         6.11941264719036    9.62397537735779    7.97634104972323
C         5.69676016742997    9.98472577205942    9.35238980260213
C         5.20311154607068   11.30344772364965    9.56544072639184
C         5.10637988573400   12.24688819208714    8.51748096718084
C         4.64104550588078   13.51101106410589    8.74991029226496
C         4.24335323505320   13.90203872723355   10.03687470618601
C         4.30264512349786   13.00821975720363   11.06846213812405
C         4.77298409986005   11.69574222127151   10.86045407109522
C         4.81121841211321   10.75299737136609   11.90789023814817
C         5.26054547664278    9.48751035723431   11.68494067831211
C         5.70777772033671    9.08323879583362   10.40420928005026
C         6.96459011599377    7.29024805098503   11.15915572216491
C         7.35256117395269    5.94968738469153   11.40941457599333
C         8.39500729241901    5.75952737382878   12.34837450987495
C         8.77443402802034    4.50779161534003   12.74232516641519
C         8.12070672926344    3.37233763366562   12.24301482328779
C         7.10400837898487    3.52721820641740   11.34225321253804
C         6.68051179558886    4.81086712693828   10.85752693014311
H        -0.73024576410745    6.42644231717001   11.07736401207471
H         0.45810114999981    8.68206973310671    7.64500112389224
H         2.74596771915208    9.15254625240708    7.23776160415029
H         4.88517446235958    7.82801330307247    5.36999772339223
H         6.81513086771431    8.89007572047101    4.22744524197248
H         8.82210762223576   10.27871220547035    4.32645608193613
H        10.34668590312140   11.73979489793856    5.59353650324769
H         9.91978606457540   12.20940259125052    7.97380925939863
H         7.96124689708863   11.24229836821604    9.09997752316739
H         5.40135359039376   11.96047529497204    7.51983089629720
H         4.57532854125524   14.21834462485094    7.93683524677763
H         3.88492484811506   14.90676221586869   10.20213524255876
H         3.98726416513933   13.29037349360121   12.06231467279179
H         4.46715408126424   11.04510881828871   12.88874937084768
H         5.25128265939692    8.75200441162067   12.47638490423152
H         7.42480129208358    8.02223835375261   11.82771009650298
H         8.89673454571991    6.62550166975953   12.75224256905631
H         8.41459626859225    2.38679856667511   12.56655244183301

