68
CSD_code = CERPIA | q = 0 | S = 0 | Stoichiometry = C26H35N3OSi2Zn | MND = 4
Zn        2.48664666401592    2.26565169808829    0.90114711255835
Si        3.28068534178402    4.61507135420714   -1.11256415135271
Si        3.87482840726345    4.78086169934116    1.85803247368214
O         2.38012419160928    1.86726579728455    2.78702800344337
N         3.18999640332817    0.40224764446754    0.56445355499302
N         1.00172851341927    1.56104804557991   -0.35076104040745
N         3.23999986496822    3.95050964404297    0.47643508100304
C         3.23533119165157    1.13774215960157    3.36752812227397
C         3.95339695811651    0.09876827692287    2.77468932205602
H         4.57766256062366   -0.49566675540644    3.42407001587952
C         3.82742909931893   -0.33661589254591    1.45161616067343
C         2.78683009699980    0.01664256920547   -0.68977512668883
C         3.44929160881065   -0.81151282331120   -1.58259589704425
H         4.43804953760469   -1.17410708180343   -1.35764764408536
C         2.87869849645717   -1.16070308222340   -2.81000510244245
H         3.42845244225464   -1.81870677288697   -3.46711337027353
C         1.64405707237343   -0.69918294528017   -3.18138448719951
H         1.19300473021635   -0.99707042908104   -4.11566921720630
C         0.96777408991521    0.21391579538323   -2.35216602021263
C         1.55399060890242    0.60663355222776   -1.12246996510151
C        -0.26900229879192    0.80221185594509   -2.69084648871376
H        -0.76092528773765    0.50225247494235   -3.60528709859890
C        -0.81489352232966    1.75318941690032   -1.87651396398294
H        -1.76327792718678    2.20995513165352   -2.11225100979546
C        -0.12305190005421    2.14955267056540   -0.71093068976394
C        -0.60463947587890    3.25007129706429    0.12734466257789
C        -1.22238908934046    4.35917186424738   -0.45012403390477
H        -1.34584349834161    4.41049745745404   -1.52202910973880
C        -1.63968137083972    5.41496882017494    0.33821885279613
H        -2.10424197672267    6.27554892896515   -0.12039559389710
C        -1.45548110927534    5.37425695522346    1.71062918890056
H        -1.78353951471611    6.20057665555451    2.32366778507433
C        -0.85046280582589    4.27264012731109    2.29252740164511
H        -0.71245834441575    4.23451067984306    3.36212778145968
C        -0.42062490024757    3.21737543655041    1.50910083742777
H         0.01907024269999    2.34580971891345    1.97098788783622
C         4.36508114706254   -1.71077252899658    1.14280749808799
H         3.67990997648923   -2.25686476314657    0.49702655046620
H         4.50488064321403   -2.27177128120778    2.06302252265227
H         5.33064040006776   -1.63629988058424    0.64394007552333
C         3.41938880929348    1.37626175832402    4.84939421828823
H         3.84298730568901    2.36986554705145    4.98495489512311
H         4.07106056240419    0.63885869137709    5.30665393766768
H         2.44882183701616    1.36437469757423    5.34132726791654
C         2.52738471926288    5.02793431792030    3.19429040422111
H         1.72847141862286    5.65950993498504    2.81790026762493
H         2.93297763144477    5.50112952148009    4.08382624343134
H         2.08990142005505    4.08106631617813    3.48561340077024
C         4.54741572468422    6.52984642422031    1.51605749032368
H         5.46818735719241    6.50250702767775    0.94830620216961
H         4.75416231751052    7.03881868706442    2.45162716833733
H         3.83394173339817    7.13007125916603    0.96602759022613
C         5.35275908121618    3.78129635308023    2.56597230391109
H         5.14975820360506    2.71496504006925    2.54579279955264
H         5.57469000033053    4.06080487060785    3.59134802415198
H         6.25081361203165    3.95280356825200    1.98047714615590
C         5.01698384374577    5.25160087826641   -1.60778601453455
H         5.13375313584380    6.30097493036068   -1.36420127242794
H         5.18969440146796    5.14444359926721   -2.67433023063133
H         5.79675184890679    4.70401897416091   -1.08946664947360
C         2.83629270421519    3.31055829549888   -2.43787278934379
H         3.33798536113875    2.36637527016289   -2.25439251328025
H         3.13642115515045    3.65266830299918   -3.42312633484842
H         1.76911641087183    3.12389924159722   -2.47660726340532
C         2.01333770739137    6.03790271273208   -1.31153719064919
H         1.04358668377514    5.75491894441118   -0.91364492233512
H         1.88132098973396    6.31182839526589   -2.35397742146199
H         2.33548675653408    6.92512294906105   -0.77769763807371

