77
CSD_code = CERPEW | q = 0 | S = 0 | Stoichiometry = C34H38N2O2Zn | MND = 4
Zn        6.36060665382418    0.77730210209913   15.85328527161880
O         6.50852283654243    0.23101609166566   17.67229422206931
O         7.37813938317415   -0.00603117102396   14.60519445130754
N         4.42042189079814    0.45168780399161   15.78924387967892
N         5.77892894519563    2.48568312322717   14.83974331693120
C         5.58940828111569   -0.34263060402641   18.32761114725995
C         4.26055757597850   -0.50118109757478   17.93730058853202
H         3.60278368111414   -0.96354282821134   18.65762173625080
C         3.67939109847340   -0.07299692709707   16.74092031027778
C         4.01207632947768    0.91752753845745   14.56610333615662
C         3.03512929738482    0.37893946832790   13.74605049678500
H         2.51318237982564   -0.51578228369215   14.04330480966693
C         2.74174483945610    0.95225613848047   12.50598874327686
H         1.97386137199047    0.50089999498269   11.89498316747189
C         3.39451182348157    2.07316860245369   12.06428223571132
H         3.14212553453531    2.52989135491319   11.11945307319250
C         4.42273802121698    2.63442548091032   12.84335149113321
C         4.76308619495638    2.03251608545791   14.07937912093582
C         5.15469828262771    3.78118217102246   12.47067578714338
H         4.92331557343080    4.27349522647588   11.53684671556441
C         6.12883694219162    4.26367499660761   13.29786050614643
H         6.66304331024527    5.16739084400157   13.05169193538320
C         6.44002601315730    3.57547117557837   14.49137553024402
C         7.47129629246222    4.06854831445249   15.40859380650157
C         8.57988993488661    4.77588044414197   14.94385963419565
H         8.71300343031094    4.93699230145638   13.88463263888209
C         9.53301666014652    5.24363549609435   15.82890872247738
H        10.39249686748675    5.78134228520589   15.45586474633643
C         9.39291277798742    5.01927870539353   17.18877766286405
H        10.13954022315843    5.38628407128432   17.87729052606921
C         8.29346098661073    4.32082969850714   17.66102816712305
H         8.17924568043689    4.14427141728114   18.71994871475136
C         7.33978523157086    3.84714425404163   16.78013897208217
H         6.47149079552614    3.32491330637418   17.15625397812241
C         5.96565409294690   -0.86888774127309   19.69585855482749
H         7.01684520252627   -0.67046035080278   19.88432799652735
H         5.78775685457517   -1.94094452288892   19.74050482562209
H         5.36253602455658   -0.39095764703617   20.46459286397671
C         2.18067689799421   -0.17531243919691   16.63227162348002
H         1.78050086417707    0.61004265667434   15.99465721076749
H         1.73155993756188   -0.09813793867055   17.61930357520107
H         1.90155265718075   -1.14163659613295   16.21376169286505
C         8.29629049298096   -0.96421511676934   14.47978195544590
C         9.67080840930102   -0.68866831864729   14.70849033201126
C        10.59147613994696   -1.71764132736463   14.59334383487045
H        11.63586044535855   -1.54043177187700   14.78944628326856
C        10.21123902020424   -2.99202524546342   14.22647875303094
H        10.94615894781766   -3.78097295951191   14.15423012224901
C         8.88773758671875   -3.24405053527904   13.93001860594705
H         8.62239039499451   -4.23968284955316   13.61510462196327
C         7.91787820692700   -2.26023941070309   14.03452204773422
C         6.46676088895626   -2.59594531245790   13.69021361572393
C         6.30133317868893   -3.97575222190720   13.03630735371428
H         6.90491754253629   -4.05757439279612   12.13529555777546
H         5.25724577702631   -4.11047031721864   12.75651178515485
H         6.56636219578099   -4.78009968133602   13.71846307187892
C         5.64799043465989   -2.60730693548596   14.98657826554926
H         5.97966023211215   -3.42201579198077   15.62803040333289
H         4.58818402310450   -2.74068835555062   14.77292121008826
H         5.78011181970279   -1.67716222838004   15.53225091303615
C         5.90745126681431   -1.57482781648517   12.69013195981729
H         5.99388848927193   -0.56559638798591   13.07593274420423
H         4.85814994236109   -1.78099066020288   12.48133708325594
H         6.46510684689723   -1.63219254998691   11.75715149742814
C        10.15182761508621    0.72138131580148   15.04805759488535
C        11.68048393758727    0.83353332503908   15.14346650156956
H        12.07373199008179    0.23315742389065   15.96041332809068
H        11.94573573996802    1.87240643771596   15.33574104325360
H        12.15768149501016    0.53170543142853   14.21417821906109
C         9.70694405439319    1.67849689218816   13.93484358348431
H        10.15266057625082    1.37482663516076   12.98928656472732
H        10.02400183307365    2.69472277462872   14.16266754959115
H         8.62750843171897    1.66136083821770   13.82394803801915
C         9.59488534278241    1.16356071560034   16.40475955202493
H         8.50468594450762    1.21433080877573   16.38772261498652
H         9.97272061962387    2.15014200485712   16.66911859725058
H         9.88787246553188    0.45513658161097   17.17671701013786

