26
CSD_code = CERQUN | q = 0 | S = 0 | Stoichiometry = C11H9O5Re | MND = 8
Re        3.18721023654469    3.77512844743032    7.39189504475444
C         4.20341316493239    3.06806407269841    5.89303563871260
C         1.57934418460495    3.93525621339616    6.30812686144347
C         2.69190817228146    1.98500982705701    7.96393378430947
C         4.84697359214352    4.50694986966195    8.96448781602760
C         3.57845012768525    4.53904473527914    9.61131626336882
H         3.33345107272859    4.04015635533369   10.53767328424508
C         2.75108371610221    5.47253558635273    8.93886413863481
H         1.79003958659474    5.82444901692552    9.28424515553288
C         3.50773138198020    6.03910267686275    7.87464071984278
H         3.21497273894288    6.89052335599674    7.27819188979872
C         4.79524002655666    5.44826366379824    7.89720248157925
H         5.63960169837894    5.75463772523432    7.29681353254746
C         6.08129455650172    3.81847330828741    9.46498234682486
H         6.34000712441393    4.21388573472219   10.45277050198997
H         6.91900128077578    4.03663794442726    8.79803684366510
C         5.91789806105024    2.30096614319992    9.57282903128882
H         5.10410304978907    2.03658912788659   10.25261256464670
H         5.67686173654955    1.86533876601587    8.59706045646230
C         7.17410666854362    1.64380414055842   10.08741778579908
O         4.87049164767930    2.70885993214281    5.03336779326847
O         0.62259322914923    4.10530573390966    5.70320493560413
O         2.42149095476202    0.95645378411433    8.39144233771372
O         7.04791558205303    0.31221474262309   10.12682014835928
H         7.86242736504491   -0.09912971419770   10.45685022089254
O         8.17428904421083    2.21277881028579   10.43017842268790

