54
CSD_code = CERQIB | q = 0 | S = 0 | Stoichiometry = C22H28AuClN2 | MND = 2
C       -11.27749956648573    0.72002538743095   -2.37058120760420
C       -10.32117448025187   -1.05304920357652   -0.96262787151660
H        -9.31315014709212   -1.47335085878051   -0.93902200132645
H       -11.03244048601453   -1.88710022686641   -0.90457101416407
C       -10.54906736664423   -0.09303219669607    0.19702733436510
H        -9.77239203021125    0.67451869525833    0.19085328320281
H       -10.50913462808533   -0.62194921483311    1.14873520681314
C       -11.91190537641583    0.55725541639891   -0.00040381144684
H       -12.70598328352158   -0.19172942733164    0.10938345283651
H       -12.08763756948288    1.34363694222689    0.73840269994912
C        -9.73697295629636   -0.81656754976677   -3.33102993582649
C       -10.32304179145532   -1.70027402037753   -4.23682002216953
C        -9.55779939874665   -2.16967710725751   -5.29219515378337
H       -10.00487417758053   -2.84749260831703   -6.00481927201734
C        -8.23654255915642   -1.78014904498782   -5.46133350943554
C        -7.68150894962856   -0.89434634970987   -4.54995084601285
H        -6.65870491137188   -0.57073888874336   -4.67878973368831
C        -8.41441740619162   -0.40094598476689   -3.48183570938500
C       -11.76313231376545   -2.09260617221152   -4.10650501240935
H       -12.02209223006701   -2.33851525957978   -3.07838119285494
H       -11.98468688952827   -2.94925531731995   -4.73707728478886
H       -12.39296853859146   -1.26015228800532   -4.42470054433735
C        -7.44309083690963   -2.27955520528124   -6.62851605623157
H        -6.37568078617271   -2.19106791847118   -6.44264335819592
H        -7.68441260674992   -1.68996353881602   -7.51293325635539
H        -7.68180658802529   -3.31874823429706   -6.84394685459491
C        -7.80566624426184    0.57872021484144   -2.52390982540679
H        -8.49923701144211    1.39431973997959   -2.32471063135266
H        -6.89176660669647    0.99461450342461   -2.93874239535889
H        -7.56023404657608    0.09927865653061   -1.57533489131921
C       -12.85184513396184    2.26491967114825   -1.48298123904574
C       -12.35985509931088    3.55687063181026   -1.29338804636279
C       -13.23228331415193    4.62398077586259   -1.42574356188351
H       -12.85981877604875    5.62909824580860   -1.29067699670619
C       -14.57073596704368    4.43144318793431   -1.74101115828126
C       -15.03175332564996    3.13732686851656   -1.92672879185834
H       -16.06852769012261    2.97406162686302   -2.18326514306883
C       -14.18950125773473    2.04230662001396   -1.80292133602987
C       -10.90894848797580    3.78054763211416   -0.99299576608437
H       -10.59561982131022    3.22607982426195   -0.10901935770186
H       -10.71162329914902    4.83600801033966   -0.82824918141742
H       -10.30541916334902    3.44427406080421   -1.83697702042386
C       -15.48421709150147    5.60520343109236   -1.91151586436986
H       -15.25983345647583    6.38092206909344   -1.18259776592619
H       -16.52498427818418    5.30938294074929   -1.80694176988678
H       -15.34972371860018    6.03072614680021   -2.90593418808682
C       -14.71260304299131    0.65366297893354   -2.01600929266508
H       -13.96644176907987    0.03013757185429   -2.50451223224590
H       -15.60411391827123    0.67768082552383   -2.63665313965134
H       -14.97726640322453    0.19410259203909   -1.06258957405812
N       -10.49525167005746   -0.33953149627424   -2.21790361244608
N       -11.97013491498848    1.15166261884932   -1.32598827009352
Cl      -11.56599050585712    2.69981666364844   -6.14506891289751
Au      -11.41308611153419    1.65921356211750   -4.15744836439821

