64
CSD_code = CERSAV | q = 1 | S = 0 | Stoichiometry = C21H39NP2Rh(1+) | MND = 5
Rh        1.59941399162039    3.71258077981470    1.81406271683076
N         1.65875613719761    2.52394156356943    3.54578236506481
C         0.62228190690291    2.49976550902515    4.40240476263560
C         0.62413826648519    1.70540307256353    5.54220288236675
H        -0.23342642545899    1.71533966171338    6.19563593699821
C         1.72498840112862    0.92215625212066    5.83283685916088
H         1.75002495678210    0.30255574409016    6.71469056387374
C         2.79307865541102    0.95954097597221    4.95679295118992
H         3.67535360773596    0.36672598715738    5.13752871316460
C         2.72954850534024    1.75907881492409    3.82226994271986
C         1.78847464011940    4.33851060441547   -0.25234937689966
H         2.81473994622244    4.35971427241074   -0.59598680941831
H         1.11854156467112    3.74117326272874   -0.86515326912842
C         1.28947474786806    5.39585858721821    0.48342584923927
H         0.24753857976309    5.67318161871877    0.38740931368769
H         1.94791703249628    6.20807643576198    0.77967173989518
P        -0.59449771575023    3.88955412980053    2.36983434571080
C        -0.55766121162297    3.37784571513995    4.14474590134275
H        -0.43753329461326    4.28991987442701    4.73913786358297
H        -1.48258480717883    2.88733540468306    4.45793678597089
C        -1.64821066213329    2.56776942341684    1.60025646458511
H        -2.53475776713245    2.39712881428850    2.22156216814644
C        -1.65160685229793    5.41915601465434    2.43083233961676
H        -1.80210383447857    5.71653642847413    1.38612231072063
C        -2.07302397820574    2.99070952934413    0.19729880749470
H        -1.19943511027151    3.23334702888381   -0.40585770919420
H        -2.72911532584916    3.85757584356579    0.22288178115705
H        -2.60863548014737    2.17985755286221   -0.29216255113385
C        -0.80733827861731    1.29285951818827    1.54869492313101
H        -1.32631765283425    0.51597388503682    0.99120161793360
H        -0.60345546606943    0.91220748829128    2.54886401577046
H         0.14906123070344    1.49527000726239    1.04997948965231
C        -0.86573795970889    6.52290332904379    3.14024999002103
H        -1.27202217430658    7.49999358634269    2.89023937490661
H         0.18569197770057    6.50240571649668    2.84652893263838
H        -0.92305033429318    6.41039178289553    4.22089121157189
C        -3.01777898776935    5.20591607377662    3.07413707602481
H        -2.92404717470638    4.89787921916990    4.11285322940643
H        -3.60300663842715    4.46234672962211    2.53908925787411
H        -3.57227814600269    6.14220609899420    3.05504639292995
P         3.81153403661199    3.20687527609183    1.75166841021796
C         3.87915068253836    1.73710797758020    2.86912225466191
H         3.77979809524063    0.84741983522728    2.23825858978047
H         4.82734419971309    1.66636241228870    3.40813154568342
C         4.85772563134126    4.44297996572019    2.66133774970201
H         5.78141984604908    3.96188908175337    3.00254190191320
C         4.83334698730368    2.63823025337516    0.30461822181175
H         4.92058354982292    3.50900185718642   -0.35622239237254
C         4.05117502435146    4.91549629099699    3.87014253440261
H         4.56069112705413    5.73577711404929    4.37137899787686
H         3.91253471840823    4.11189477567351    4.59251760850332
H         3.06387515593210    5.26882178559800    3.54618287664448
C         5.19274494416087    5.61587637300226    1.74495819004463
H         4.28072045694981    6.05358885878305    1.34181915868131
H         5.82571641494278    5.30745977043523    0.91621915542773
H         5.72179109516762    6.38681318025073    2.30147820779047
C         4.06174477156714    1.54443843506759   -0.43512180480159
H         4.43588678628372    1.43578163624758   -1.45033004701611
H         2.99768511465354    1.78379451733505   -0.48461265663381
H         4.17494488444386    0.58262632578239    0.06078762630233
C         6.23667377934339    2.17336854907159    0.67947726709609
H         6.20587201888646    1.31619027334816    1.34800803087989
H         6.81063473277041    2.96641763895391    1.15198730626054
H         6.76640707619792    1.87149547927687   -0.22203789406628

