81
CSD_code = CERSUO | q = 0 | S = 0 | Stoichiometry = C32H32N10NiO4S2 | MND = 6
Ni        6.39764173986505    4.94229296638211    6.56813055527065
S         4.54670641705308    2.66653708708580    7.86437206396052
O         3.28634295596998    3.25681366762733    8.24813538754753
O         4.60195417514872    2.09807721703963    6.53912225851698
N         5.75048729702833    3.76039922875276    7.92197426259214
N         6.82888855849966    5.47182016609173    8.88917572193457
N         5.65799799153143    3.89169633630653   10.24199991031418
N         6.20584712156753   -1.39852073252876   11.84753983425577
H         5.72549930900680   -1.40651306274029   12.73189840303544
H         7.18570207202348   -1.62421446063390   11.89017649237688
C         6.05781777813654    4.36959226348809    9.06199286384978
C         7.19676302276276    6.11658385265224    9.97762701673673
H         7.80789697570376    6.99779497488193    9.82125321727470
C         6.82182650545471    5.70007156388215   11.24611858536349
H         7.12384946638744    6.23504449092051   12.13167936911220
C         6.03425252185585    4.55187389987668   11.32448568472454
C         5.01322986860044    1.42434023531507    9.05485350281017
C         4.18420561667167    1.12533649952023   10.11787348137133
H         3.23968783706493    1.63940830688045   10.19053244451497
C         4.58597184542374    0.20024286521736   11.05925312092746
H         3.94663445908416   -0.04307811342379   11.89597168515782
C         5.82830354357243   -0.43119040646976   10.94381404100473
C         6.65364134411130   -0.11266990115128    9.86099570203021
H         7.61572608751188   -0.59643301028387    9.76997484604059
C         6.24430237258244    0.81212051114271    8.92189784357743
H         6.87138515264993    1.07517516351547    8.08389403511727
C         5.56840982423662    4.00054264223806   12.63539907510143
H         4.83672460445319    4.67420274201240   13.07940322816324
H         6.40394046588923    3.90331899609956   13.32623835603215
H         5.10634909282200    3.03141133257004   12.47096336097082
N         4.80587678429453    5.88241400508652    6.64616253746291
C         3.64911593637485    5.33687378756823    6.27778757118711
H         3.69519001777931    4.35953431921114    5.81489866317100
C         2.43835481235885    5.97675050933525    6.49049058242786
H         1.52091472743180    5.49609695839399    6.19216326459853
C         2.43099945386657    7.21742785784314    7.10539342533036
H         1.50175930536984    7.73302799194583    7.29902525433825
C         3.64376288762346    7.78693256048484    7.46433758876545
H         3.68508560729144    8.75696880949464    7.93539534932016
C         4.81314381260586    7.08847186589166    7.21651804379127
H         5.78835342392035    7.49617440831218    7.46744319532934
S         8.24846529564971    7.21809356765662    5.27172691659493
O         9.50885128210428    6.62782699980623    4.88800843880845
O         8.19320919373499    7.78666104602498    6.59693062117518
N         7.04471991840986    6.12419163548203    5.21423615820080
N         5.96642086050475    4.41260745762901    4.24722846336426
N         7.13700314906785    5.99278624881683    2.89420994612716
N         6.58899493979021   11.28243961533289    1.28798692749182
H         7.06931366463446   11.29029973102676    0.40361094017304
H         5.60911543241495   11.50802548244283    1.24533053551251
C         6.73732911265014    5.51492806685005    4.07426908116134
C         5.59867599153692    3.76762912354447    3.15886211153773
H         4.98756489658034    2.88642591963888    3.31535068908485
C         5.97369688890898    4.18394841442765    1.89032994810036
H         5.67170612973791    3.64886606989029    1.00483335193687
C         6.76099021842263    5.33231246438936    1.81182418572457
C         7.78189731035596    8.46014189148871    4.08112042510809
C         8.61087231445101    8.75902321733032    3.01802898020063
H         9.55542273046543    8.24500394964143    2.94542985056741
C         8.20902565477210    9.68394665507970    2.07651598659657
H         8.84832985304587    9.92718336983034    1.23974624713068
C         6.96664642059257   10.31530139648783    2.19187851443739
C         6.14136128722777    9.99690725625371    3.27477454235010
H         5.17923973767337   10.48060914595426    3.36573432341763
C         6.55079489479805    9.07231190062575    4.21402143018845
H         5.92375715760120    8.80934572629582    5.05208644988304
C         7.22680177860803    5.88341482472013    0.50104888903491
H         7.95939074821476    5.21076355799950    0.05756241039394
H         6.39198568681674    5.97939973487164   -0.19043431053168
H         7.68764559575531    6.85300611514244    0.66471588294000
N         7.98945593711867    4.00223055503200    6.49013454871251
C         9.14615427743544    4.54789223675994    6.85853036114644
H         9.09997195832803    5.52524744321995    7.32137241327332
C        10.35698204175888    3.90811592522588    6.64591348564448
H        11.27436369556118    4.38886861151889    6.94425770262746
C        10.36447714116388    2.66740718155500    6.03107737096204
H        11.29377223145138    2.15188018743556    5.83752004736153
C         9.15178192890993    2.09777902692673    5.67209907046854
H         9.11057203268234    1.12771789866949    5.20108251846374
C         7.98232843022573    2.79614968981167    5.91982784835609
H         7.00716938925589    2.38836026332712    5.66885487085678

