68
CSD_code = CERSID | q = 1 | S = 0 | Stoichiometry = C22H41N2OPRh(1+) | MND = 4
Rh        2.79738129365257    9.10013080624694    2.93503570920698
P         0.82748350313446   10.17559907364625    3.13726055934089
N         4.50282258779401    7.70191256611280    3.18038008530052
N         2.36442235128044    8.38569447965346    4.66678148913206
C         0.05931062039549    9.08065093376047    4.43006970509151
H        -0.68013519617168    9.58307301421700    5.05481089889887
H        -0.44606160677719    8.26934325088556    3.89771282682979
C         1.15430393141571    8.47659710715477    5.24622321610343
C         0.92992944609560    8.00210086146717    6.53017186309700
H        -0.05000331494378    8.09926716666532    6.96984567843847
C         1.96175377364369    7.40207042873369    7.23203218870534
H         1.80549297946888    7.02585861175661    8.22974924735318
C         3.19918985109414    7.28973763052117    6.61754012846262
H         4.02870768483914    6.82298254793728    7.12371436517918
C         3.36714721529105    7.79558229562949    5.34061889741193
C         4.69696685053217    7.74832324744873    4.63715534192408
H         5.25268992679316    8.66079472871012    4.88703237710943
H         5.27677343163755    6.88800542791413    4.99761204926523
C         0.84118322154527   11.86811124125744    3.97831049920610
C        -0.52824335721897   12.43745786388343    4.32860807777628
H        -0.39728799511851   13.33435829161204    4.93229597013308
H        -1.12747244464830   11.73682127464719    4.90552686142918
H        -1.07851404986055   12.72118462491896    3.43553600397563
C         1.66639728052337   11.65603496533226    5.25187597925512
H         2.61536172394232   11.16835964823613    5.00896056894659
H         1.13773513082545   11.04573831643888    5.98057044156230
H         1.88735579958939   12.61486906395565    5.71676516399177
C         1.60269052083365   12.84242863696677    3.07872373286189
H         1.01215643803903   13.14882237836231    2.22132132939719
H         2.51905495447399   12.37597479756035    2.72255248815449
H         1.86614240484717   13.73776758943036    3.63895853757449
C        -0.42228848323586   10.05789145611764    1.72835884257276
C        -0.17711252316741   11.18890575254591    0.73113679384576
H        -0.68177529740246   10.96944808115955   -0.20820723895461
H         0.88829960984528   11.29184755091030    0.52825138945546
H        -0.56468003214451   12.13447726818824    1.10066442971939
C        -1.88446537829741   10.05209160555313    2.16835635419610
H        -2.51742681721186   10.02795999899098    1.28250803835598
H        -2.14309509162662   10.94061242043318    2.73495476048341
H        -2.12550673336943    9.17724589418007    2.76624460722510
C        -0.08016707732782    8.72884879912902    1.04627450854896
H        -0.14030503514365    7.89211391455244    1.74226080489462
H         0.92887709768071    8.77075399751890    0.63645060990418
H        -0.77361184313793    8.53554775276415    0.23028025014037
C         4.03625536119882    6.35545097715561    2.79668312795726
H         3.28096981165674    6.04819694168860    3.52649211144000
H         4.85984752351752    5.63453274511268    2.85028956415126
C         3.40148296056809    6.33538485821066    1.41258291366517
H         2.64368723654271    7.12460692044959    1.34930349307245
H         2.91861898999136    5.37634427240964    1.24638795818818
H         4.13727779516414    6.48395357161232    0.62672964998460
C         5.72832475514132    8.09473070594050    2.46563782359116
H         5.95569033920118    9.12503353976467    2.75643424938518
H         5.50402636574252    8.08851819778457    1.39672579619910
C         6.97283880962018    7.24184946108733    2.71476521961403
H         7.24525473250821    7.22302458222375    3.76663012861644
H         7.80304621134081    7.67577287256897    2.16362553475844
H         6.84581126741735    6.22130825744367    2.36525838593779
O         3.31550727144150    9.77526059889331    1.12516862774938
C         4.07455012159714   10.62783705878472    0.67943010628150
C         4.87907059254576   11.53805840311453    1.56030984320718
H         4.67478537197699   11.31450276169349    2.61119548584702
H         4.63354895408741   12.57863225907842    1.35505720384634
H         5.94156997997330   11.41201017070374    1.35922748245638
C         4.23276282454785   10.81157304263212   -0.79918688566291
H         3.64406986571742   10.07532556622996   -1.34008443219241
H         5.27918602191496   10.71978021042957   -1.08248446967762
H         3.90543948417550   11.80991466188096   -1.08476534992027

