99
CSD_code = CERVED | q = 0 | S = 0 | Stoichiometry = C47H46Cl2P3Re | MND = 6
Re        3.86135352486661    4.89125524922361    3.91554248157349
Cl        1.79492795217638    5.94785904165147    3.92905366804064
Cl        2.85124156523210    3.22430318626045    5.35967961815358
P         4.66089657809800    5.92899201286147    6.01286302886539
P         4.22963105595584    6.77083572020396    2.41074575829617
P         2.77078318189288    3.30687163256468    2.39388342487747
C         5.51975486079696    4.05965423816472    3.75381822111052
C         6.78270744010812    3.35438640732250    3.60998461889031
H         7.60221345255224    4.06612348965360    3.45914874838558
H         6.72784056089492    2.71267513374633    2.72091759029100
C         7.05419962712618    2.48952716908754    4.82013501359522
C         8.28159054901328    2.52810127398707    5.46612873176050
H         9.06432248079599    3.17488201010298    5.09367078505933
C         8.51003190063080    1.73943663446763    6.58150206493449
H         9.46933198432876    1.77590734500584    7.07767328838518
C         7.51125639065496    0.91023444913288    7.06166471266134
H         7.68930420261634    0.29868086556950    7.93412734732971
C         6.28384961961664    0.86927438566236    6.42032134510682
H         5.49763204192379    0.22944998514633    6.79185279128053
C         6.05563903975786    1.65331748394533    5.30420258555731
H         5.09590625782625    1.63875739902165    4.81176761728276
C         4.91700981173005    4.65339385142633    7.30304811300652
H         3.93814304733694    4.32916411984994    7.65425920196886
H         5.48681359219608    5.08213890824896    8.12817487140494
H         5.42554956739887    3.79012301336008    6.87514062343940
C         3.61344610685166    7.06872086472209    6.97289906472527
C         2.27500431985181    6.70037717756545    7.08863259530823
H         1.92736050540036    5.79521015011182    6.60871050183917
C         1.39185757744976    7.48573166511377    7.80410871527026
H         0.35256743033279    7.19987310399155    7.87655236555321
C         1.84262794900277    8.63951310252154    8.42408639490090
H         1.15421827125924    9.26110198605612    8.97841319542181
C         3.18053397989993    8.98893554647559    8.34404971172956
H         3.53803588153331    9.87621119181158    8.84748882263745
C         4.06808187671121    8.20875335447104    7.62381364359890
H         5.11184758478701    8.48299781187202    7.58347781880278
C         2.98461128541934    7.03251043469300    1.09158226146205
H         2.94593113784513    6.16526545678271    0.43293311450905
H         3.23583718267202    7.93426140180548    0.53206557869085
H         2.01408167054704    7.16681917748164    1.56808324231817
C         6.30372335137023    6.70660646075349    5.91151539241277
C         6.45451714289448    8.03636941518466    5.52554473335386
H         5.58326954644078    8.64845201249825    5.35567161896577
C         7.71416578580231    8.57975116486051    5.35089231193916
H         7.81150058436870    9.61408664725482    5.05446631999042
C         8.84216217278913    7.80081398489367    5.54651887865303
H         9.82571040753278    8.22522204141777    5.40723763843798
C         8.70113558609701    6.47361460831844    5.91670179845508
H         9.57710447019648    5.85887784293080    6.06804394795306
C         7.44306433519582    5.92718325603616    6.09526138639863
H         7.34605713326830    4.88788154934270    6.36803714170341
C         0.95516051370140    3.22026208034137    2.50909987216302
H         0.67888408996758    3.24242932224248    3.56401728966627
H         0.58858149641939    2.30312782043296    2.04696182386540
H         0.53101681515384    4.09748347917558    2.01907016458907
C         4.25741426860789    8.46747113490292    3.10191104994881
C         5.14155353016691    9.42378988125513    2.60937269667218
H         5.83714518714878    9.16606639052123    1.82400814730071
C         5.14114846774174   10.70548209392302    3.12893996932058
H         5.83401046359314   11.43839231561064    2.74051369186039
C         4.26097356953824   11.05239594618549    4.14117687842279
H         4.26793488170199   12.05382582312776    4.54643179914654
C         3.37185532404636   10.10988428085613    4.62877591440578
H         2.68077188086454   10.36704918462038    5.41855295257515
C         3.37071247490945    8.82691616945062    4.11156144094709
H         2.67252110650304    8.10118021892198    4.50109101649189
C         5.81624978725555    6.75641863186960    1.50959002057100
C         5.95518986335391    6.89122848191560    0.13431585307923
H         5.08860591036889    7.01388766348099   -0.49757524282863
C         7.21586678678410    6.86508855870662   -0.43946332293553
H         7.31773068697648    6.97138013396975   -1.51036130575340
C         8.34278138293914    6.70991125326599    0.34911709669595
H         9.32258736957925    6.69503882103647   -0.10540045585117
C         8.20897115931175    6.57146893123664    1.72230046390996
H         9.08463711691953    6.45246852615356    2.34415525272332
C         6.95299785176137    6.58762088375484    2.29583934759953
H         6.82241777084729    6.46848194679550    3.36235085899222
C         3.09215185326489    3.47860120676916    0.60451079993678
C         2.17116486123537    3.15729547139190   -0.38423006774177
H         1.18252401630313    2.81080763138179   -0.12290779193895
C         2.51718632198724    3.28192808260536   -1.71914079528705
H         1.79406985913053    3.03754230680519   -2.48401991379023
C         3.78411890615767    3.71127921827325   -2.07754037020882
H         4.04867011994620    3.79982765024051   -3.12106863461175
C         4.70832243689877    4.03168321183344   -1.09564311705428
H         5.69757796331744    4.37060905155326   -1.36692423861479
C         4.35939822019796    3.92512483561174    0.23757050747431
H         5.05414435006603    4.20525951542011    1.02316393021737
C         3.29083920996967    1.57202902810073    2.61214150363755
C         2.58387326761507    0.71443713065666    3.44860087107651
H         1.70065397651794    1.06157543710384    3.96192039751179
C         3.03149310841687   -0.57774482149267    3.65813230943151
H         2.47952088402100   -1.23314826381141    4.31603917364612
C         4.18380493792981   -1.02824045166038    3.03734218856316
H         4.53447080627954   -2.03543452485846    3.20827882997454
C         4.88701351203355   -0.18118939772515    2.19709381928338
H         5.78583902562709   -0.52768355700165    1.70737608935920
C         4.44484456538531    1.11132760221581    1.98587673555097
H         4.99221448048697    1.76807724819171    1.32528005371787

