27
CSD_code = CERVOM | q = 1 | S = 0 | Stoichiometry = C11H11N2O2Pd(1+) | MND = 4
Pd        4.90655328634560    0.41188839687802    3.88276703190059
N         5.08171453051155    1.88174432649744    2.67275502439122
N         4.74992936277852   -1.06432117707480    5.09750875097857
O         5.28466959832924    2.18150432724909    5.26271921548993
O         5.50767151423024   -0.34805416387803    0.09124029275491
C         4.35531651709770   -0.61626851171676    2.19175038785271
H         4.53864489737384   -1.69082617603170    2.09900491319419
H         3.26686180774061   -0.41829291751821    2.17660181467367
C         5.01026336091402    0.13059913016087    1.07755425115153
C         5.07721920833105    1.61819395625152    1.36357533207629
C         5.23402950572753    2.62764732708680    0.42011177428013
H         5.24922041927599    2.37330356038508   -0.62813256315036
C         5.37655540690047    3.93498596554228    0.86498842305004
H         5.48709717241242    4.74271793517311    0.15854139640901
C         5.39779924971484    4.19558056295536    2.22936965541523
H         5.52861710940398    5.20302753515663    2.58997735232578
C         5.26082861105658    3.13711463992439    3.12477502269216
C         5.32574659286360    3.22239746251491    4.61380499545083
C         5.45384059890677    4.55310314387324    5.26566602547916
H         5.45884477134669    4.43441764391338    6.34646295173472
H         4.62878032019433    5.20115673870421    4.97426540930811
H         6.38031587876828    5.03445083497435    4.95453885512128
C         4.72425961857551   -1.87172031573132    5.91696145012196
C         4.67929976320301   -2.88520272551067    6.90867078434442
H         4.94944484940923   -2.46883797529353    7.87964030131359
H         5.37944500523021   -3.68113556621690    6.65190330741096
H         3.67213104335651   -3.30017395827182    6.96377784422918

