99
CSD_code = CERWAA | q = 0 | S = 0 | Stoichiometry = C47H46I2P3Re | MND = 6
Re        7.01118981463860    7.41987381070924    5.02534807331868
I         9.08174140070884    7.49764697957260    6.79846685887320
I         7.74442710165457    5.05166516209142    3.67651914449151
P         8.68997903613513    8.47970376573581    3.51646868408604
P         6.27517552570715    9.58181743545084    5.96695114843445
P         6.04313024903966    5.92881342139793    6.72955878365322
C         5.41354437115155    7.46545864544158    4.05330462623192
C         4.09863100330075    7.51298793000817    3.43667159933137
H         3.74325658826426    8.55310607053591    3.43149566892156
H         3.41474412666383    6.92463354917473    4.06576588299385
C         4.03633292764949    6.97681877170284    2.02288965679783
C         4.39414848588891    5.66363067608569    1.74975110020262
H         4.74416455359945    5.02870276800282    2.54761088962205
C         4.31495196791521    5.17287764467646    0.45937171156576
H         4.60844888920419    4.15382753285862    0.25845405109986
C         3.86133293914514    5.98451109449998   -0.56705776757780
H         3.79176322727383    5.59914881441029   -1.57385412748204
C         3.50137722449119    7.29443617208887   -0.29932316197036
H         3.14861370720707    7.93485270966438   -1.09533520020783
C         3.59564902694969    7.79121736227504    0.98946361865798
H         3.31888165880349    8.81750157325096    1.19196337375709
C        10.22682726052802    7.51492731891944    3.25999533975759
H        10.59752761337065    7.07954378372289    4.18857870841465
H        10.97846614576097    8.18418012339163    2.83695816933629
H        10.01461287741777    6.71124872121095    2.55381091430346
C         8.28405367002366    8.73914372418530    1.75869874008762
C         9.09485602601757    9.54022915263408    0.95995213666188
H         9.92784726135411   10.07705767705695    1.39389609518879
C         8.82957957141604    9.65578911994109   -0.39057984301608
H         9.45696886229152   10.28344215945653   -1.00708043324687
C         7.76968287996932    8.96295782227864   -0.95529559404051
H         7.57084524845920    9.05280578661937   -2.01320094835278
C         6.97316323479095    8.15143519556689   -0.16677325018833
H         6.15431818237838    7.59882994339530   -0.60081439735710
C         7.22857223868725    8.04225848799988    1.18843565706697
H         6.60930311849152    7.40850281638646    1.81108702247959
C         7.47943424605457   10.63405070375201    6.85260867361728
H         7.84634824598368   10.12024873690434    7.74142011342951
H         7.00723802436341   11.57656684210713    7.13027765632677
H         8.32740375004554   10.83121922349443    6.19720321876245
C         9.37672879055618   10.10511248153059    3.97947472590186
C         8.74600265980148   11.27348618767082    3.55589467260613
H         7.88222174497971   11.21387698154707    2.91016174828147
C         9.23046771965983   12.50883293050005    3.94177571441333
H         8.73128900209434   13.40544557200316    3.60327724292574
C        10.34794813439007   12.59573399225009    4.75709048479515
H        10.72242379085515   13.56171843999825    5.06218478110428
C        10.98680450693735   11.43958025984206    5.17224738725338
H        11.86221235251422   11.49789465146367    5.80198640194588
C        10.50861537384293   10.19956445586073    4.78593328693185
H        11.01852653687150    9.31041755327563    5.12600462157125
C         5.93416838999198    6.53392172670957    8.45300954120888
H         6.93932496921177    6.54387886729820    8.87790977459209
H         5.31135017532147    5.84415162813719    9.02413457438108
H         5.51691313406476    7.53942101722694    8.49025313547365
C         5.60745806093866   10.76716533363601    4.74267379269429
C         5.63761285462171   10.49472138583456    3.38227481860951
H         6.07260259684198    9.56404793142984    3.03772508267846
C         5.11807790584652   11.39736831108527    2.47006861375122
H         5.15402091321925   11.16861196670942    1.41419808881571
C         4.56447916192237   12.58499195766241    2.91471395052735
H         4.15943827305191   13.29349595609337    2.20735174242210
C         4.52612203558358   12.86225727306202    4.27288699451028
H         4.08953424829231   13.78629347501050    4.62316276624739
C         5.03910489837660   11.95922265813788    5.18399322279868
H         4.98394772568374   12.17691923872319    6.24219849529295
C         4.85820012584980    9.61109843404062    7.11811675215221
C         3.59225147376399    9.37142058550615    6.59056401696874
H         3.49486536811122    9.16044484387408    5.53611381745653
C         2.47437224796046    9.40882859550111    7.40108154724024
H         1.49752099066837    9.23140024041681    6.97571612036026
C         2.60851727639096    9.66898985436857    8.75577633205818
H         1.73667787744299    9.69708374091518    9.39231493547843
C         3.86569710541825    9.89037052096659    9.29204128546923
H         3.97699429560084   10.08806114655255   10.34838795282985
C         4.98790199265713    9.86354177045153    8.48107565689594
H         5.95913125422016   10.04005998314936    8.92076421715430
C         6.71416869666588    4.26888609824023    7.11530057549594
C         8.05165032169968    3.92134868752071    6.98842927724618
H         8.77372451975587    4.60687090103328    6.57743399783396
C         8.49003063964618    2.67043770829123    7.38567769808562
H         9.53242345701286    2.41519537182446    7.27043020038166
C         7.60164724584121    1.75723946803625    7.92159227866161
H         7.94368749969012    0.77945550593520    8.22695547894233
C         6.26799456125449    2.10335872234762    8.06828076160794
H         5.56638929260473    1.39925110064299    8.49228570369240
C         5.82554030339700    3.34974329515443    7.67276423125688
H         4.78124813983629    3.60653980357194    7.79128092101707
C         4.32703360732958    5.50402804915154    6.30581072082872
C         4.12632275441342    4.58273426006152    5.27838203264911
H         4.98305301836243    4.10525405015235    4.82186597499976
C         2.84625814498005    4.27062983005446    4.86344930493230
H         2.69738591463002    3.55470454195880    4.06859709176521
C         1.75505957407576    4.87874075013611    5.46626226597216
H         0.75360276038540    4.63690378750371    5.14161217159803
C         1.95073386265441    5.79345084828821    6.48711547442821
H         1.10220440563083    6.26323126162573    6.96406025551097
C         3.23171391920868    6.10920790958161    6.90806807039761
H         3.37206911454720    6.82078687174410    7.70824462293503

