77
CSD_code = CERYIH | q = 0 | S = 0 | Stoichiometry = C34H30N6NiO4S2 | MND = 6
Ni        7.96997722174464    6.79909872527598    6.05524598860458
S         5.74331056572610    5.82071523460963    3.73705897633347
O         4.73701843534212    6.65288143022934    3.12843536720670
O         5.28970160349020    4.79905288454391    4.64691774326356
N         6.85802928808992    6.69840780831122    4.51821572980195
N         8.44995326107407    8.17240794783508    4.84592782543571
C         9.20887063778211    9.21575354620467    4.54972033620352
H         9.95491107424930    9.50007705708562    5.28132315560439
C         9.05098305125822    9.90436306892962    3.36232160143389
H         9.67929357866439   10.75095936421559    3.13796312170249
C         8.06711902736020    9.48728340035282    2.46287368833122
H         7.93338757645605   10.01745582867341    1.53075975376752
C         7.26941710195273    8.40657591848251    2.76131761811309
H         6.48467355441396    8.05961493648213    2.10983478224701
C         7.48374440182975    7.76048278912172    3.98725405400725
C         6.68185942067476    5.02982264009167    2.43109176839079
C         7.97382131624412    4.61733332813337    2.69164073362132
H         8.39297445485276    4.79726218601133    3.67133736150876
C         8.70422106125006    4.00886111969161    1.68629671550343
H         9.71782180567095    3.68422212586150    1.87464259180655
C         8.15142801515883    3.81102791111822    0.42426326183291
C         6.84962252362303    4.23753895957373    0.18568836982510
H         6.41186522194020    4.09355897982460   -0.79148332326879
C         6.11349555574982    4.84743912366669    1.18716838490973
H         5.10603612317637    5.19548652609014    1.02148811001967
C         8.94193696152878    3.13272653624988   -0.65277729558516
H         8.59429352298108    3.43278270234027   -1.63804634229594
H         8.82858359136037    2.05145280834299   -0.56975870010456
H        10.00017663117575    3.36659352094044   -0.56366072882750
S         9.52031398326159    7.75891913208964    8.76684747267890
O        10.49616434586089    8.81990716415353    8.74689608743660
O         8.19763094665445    8.10306176528874    9.21681124738171
N         9.38286157413741    7.02192144558846    7.32249288583583
N        10.13273162475027    5.76665521354422    5.61137766720877
C        11.10120614108328    5.15850798314055    4.94172922588114
H        10.79567162256904    4.62947480546430    4.04668074977728
C        12.42613168241593    5.17191286688035    5.33047354701268
H        13.17735119178480    4.65682867973954    4.75324755967978
C        12.76163923452395    5.87878319193702    6.48323335002390
H        13.78955756844780    5.92384302849455    6.81406481955529
C        11.77954897508703    6.52570110665144    7.19572467634395
H        12.00341468818204    7.11173028916538    8.06988049765851
C        10.45465369782304    6.45450033631919    6.73168441227727
C        10.11632650405666    6.46104887564703    9.85706099700173
C        11.14738838188313    6.70507907007497   10.74279285377056
H        11.60552059952205    7.68197628179328   10.74804054930472
C        11.56495194646275    5.69908244267325   11.59551278540114
H        12.37053306811735    5.88247990274822   12.29168607604786
C        10.95489511318447    4.44837708999511   11.56934254202002
C         9.91636644972651    4.22551662165299   10.67189219803234
H         9.43302859854073    3.25938633683602   10.64367085432022
C         9.49426718743261    5.22995113293908    9.81792978497266
H         8.68743450369408    5.07543429535617    9.11826623895533
C        11.42571225494079    3.36445637440799   12.49047830410565
H        10.73244916128266    2.52767345791869   12.49590079416144
H        11.52919278502693    3.74323453760629   13.50528033336252
H        12.40188136702678    3.00044931812935   12.17082270079035
N         7.13317390931015    5.38133972000320    6.93662732185668
C         7.44118428797274    4.12536733689755    6.62265115836270
H         8.37764358884509    3.97856273855392    6.09617946345051
C         6.63385668652102    3.05203128822403    6.95034404222279
H         6.91965485039756    2.05255997618509    6.66424962769994
C         5.44732313611611    3.29481530936792    7.62314029600369
H         4.77332576376652    2.48713091717150    7.86496590234688
C         5.13947292478442    4.59502260868602    7.97362473767776
H         4.21558347800926    4.81790148922478    8.48259109787061
C         6.00597250142376    5.62834177388144    7.62478504887297
N         6.30735665963792    7.95021121359175    7.20079951316409
C         5.73568585288290    7.03228949091726    7.98646144711473
C         4.96590455576753    7.38665738075228    9.09102026956894
H         4.54890318787120    6.63323542989856    9.74060819130333
C         4.78241206763842    8.72925683400050    9.37156731831978
H         4.20286736246406    9.03234779117937   10.23142728149332
C         5.36177030836238    9.67272209161201    8.54126466760344
H         5.24230952290866   10.72806361308719    8.72867208001757
C         6.12208391170781    9.22871187224900    7.46978060083797
H         6.60456366128921    9.93009997000548    6.80145807378052

