71
CSD_code = CERZUW | q = 0 | S = 0 | Stoichiometry = C24H36N2O8Pd | MND = 4
Pd        8.25581851080752    0.00025341473336   -0.00001497619471
N         9.06508181060899    1.94612272654402    0.05988646846173
H         9.42730661757800    2.10418705471870   -0.88411740594360
H         8.30190048745939    2.60121573052552    0.24232474951908
O         6.43031915921198    0.89747092014270    0.37597824406632
O         6.67055205947412   -0.36726438247266    2.16207056703777
O        14.03803874621243   -0.29598317539591    5.46124181445211
O        12.96467368229179    1.97463305368622    6.07594148984950
C        10.11794279874638    2.06484281206231    1.07058050080639
H        10.45678882419832    3.10580994475755    1.17119321613116
H        10.96725979262957    1.45734353205639    0.74220634187548
C         9.62595883548450    1.53126327318238    2.42970194051279
H         9.07417952685583    2.30685365935350    2.96397911418288
H         8.94651640494662    0.67723649565041    2.23616239610319
C        10.77964882927547    1.03030587871637    3.25091223118141
C        11.30764679243553    1.77952390300746    4.29749701045845
H        10.85572070121000    2.72928695145012    4.53746730365522
C        12.38830590161250    1.31728332496967    5.02858526306868
C        12.97059983606522    0.07495660725412    4.69620020191842
C        12.43759534752497   -0.66403392646074    3.65324532307396
H        12.86170685537671   -1.61977547969711    3.39001693078713
C        11.34718628577719   -0.19117736695501    2.93864416742693
H        10.93116714835960   -0.77837857994447    2.13049564289250
C        12.40122977235284    3.19277496946112    6.48809502641766
H        12.46579305212228    3.95529017022127    5.70380197059978
H        12.98904089899688    3.51282138222319    7.34707372718471
H        11.35545601437563    3.07264508204283    6.79128199663970
C        14.66422698233608   -1.52069579687550    5.17885344046593
H        13.97973128428010   -2.36561268857530    5.31155815613129
H        15.48083121314638   -1.60477062578767    5.89446003498157
H        15.07211775232419   -1.54181734410469    4.16224494749559
C         6.03679523673113    0.46198962004172    1.49966629556670
C         4.71851431683485    1.01953516993568    2.01771683666576
H         4.17561043085421    0.24252463496876    2.54804131844109
H         4.12589883013264    1.40869459705414    1.19481885824776
H         4.93306395065511    1.82612665122345    2.71585565563926
N         7.44663815388441   -1.94567835397913   -0.05993837786306
H         7.08472171875632   -2.10409753428867    0.88411157884074
H         8.20995768527148   -2.60048896068533   -0.24277268468600
O        10.08142689130478   -0.89670708168561   -0.37577735368660
O         9.84132330499928    0.36788850478438   -2.16201262600101
O         2.47295444358049    0.29519861868510   -5.46134204552429
O         3.54716993997815   -1.97495604519461   -6.07608763661546
C         6.39358050125434   -2.06440862798613   -1.07040981289990
H         6.05477607479781   -3.10540010438682   -1.17100215425310
H         5.54430467920814   -1.45695411566530   -0.74184331272240
C         6.88539810582778   -1.53070542679886   -2.42952434466528
H         7.43735610655131   -2.30616547943770   -2.96381065125788
H         7.56465221816866   -0.67650129432593   -2.23599639001946
C         5.73152482947078   -1.03012483420948   -3.25070432876089
C         5.20393810465103   -1.77942217411565   -4.29743864233861
H         5.65627051386485   -2.72897714833754   -4.53747639996637
C         4.12318072498090   -1.31751466586671   -5.02859329558231
C         3.54037730700863   -0.07544395858471   -4.69613781964781
C         4.07292403228044    0.66359216898887   -3.65298004258778
H         3.64836474593399    1.61910673541397   -3.38964319048643
C         5.16342821771516    0.19106382131260   -2.93830285183680
H         5.57912499458356    0.77832282236493   -2.13003371267999
C         4.11109914168984   -3.19285388794873   -6.48829849639583
H         4.04658903087483   -3.95550666584114   -5.70413447537957
H         3.52360148526174   -3.51296250266262   -7.34746803877094
H         5.15690589341181   -3.07234142566306   -6.79121525001538
C         1.84644836633772    1.51979874537824   -5.17916945853946
H         2.53083684428616    2.36483576285329   -5.31165692733608
H         1.03006763568279    1.60371076336940   -5.89505171018049
H         1.43821124247949    1.54086429967539   -4.16269895159802
C        10.47493057329435   -0.46140766665507   -1.49954822341978
C        11.79291370663615   -1.01952210344676   -2.01775194953730
H        12.33604032483929   -0.24277263824922   -2.54821025395296
H        12.38551268622350   -1.40887056981394   -1.19494007846691
H        11.57792508561868   -1.82608117071124   -2.71580689097064

