51
CSD_code = CESDUZ | q = 0 | S = 0 | Stoichiometry = C16H32FeP2 | MND = 8
Fe       -0.16267719356159    0.75713204487172    3.50146823072771
P        -1.43078486611040    2.17435957209137    2.43109147152572
C        -1.73752182977529    0.73275216327336    4.87815741153295
C        -1.11010965594876   -0.51162700631728    4.78818385513531
C         0.23244248105623   -0.63348491730921    5.17664087261696
C         0.93507561470983   -1.88824979917555    5.07539070957832
C         2.11916706266273   -2.15498821387721    5.62524363403182
C        -2.06387725475038    3.61503190924048    3.39124486475930
C        -0.92344801701210    3.08231769401995    0.90088305907113
C        -3.04557410295893    1.53900246910674    1.80333399722971
H        -2.78296791776262    0.78299735903552    4.60468377618518
H        -1.48808686754779    1.38428398860864    5.70557870828649
H        -1.61913610145693   -1.34611161615536    4.32568818498331
H         0.58298185699350    0.01583303838641    5.97190182514481
H         0.43792868923762   -2.66290422319176    4.50325094049858
H         2.59803387741740   -3.11295135891431    5.51490776233138
H         2.65314227399728   -1.42110102351722    6.20597320372352
H        -2.68278228664713    4.25725512609204    2.76489106408950
H        -2.65234203734489    3.24691466041399    4.22734350720911
H        -1.23128466614607    4.19304975389424    3.78320885850923
H        -0.05005511372959    3.69814678669661    1.10319440027138
H        -0.66922435297313    2.36625539578964    0.12116069038886
H        -1.73912527673539    3.71411896050936    0.54987560088996
H        -3.77941434549516    2.34210539664121    1.74759448970271
H        -2.90842058764378    1.11389302838447    0.81177439867666
H        -3.40842841900650    0.75579101470153    2.46278095027150
P         1.10542578068838    2.17434513185897    4.57187419544320
C         1.41218826025091    0.73272896662220    2.12480950779585
C         0.78475914551243   -0.51164279578962    2.21477122164049
C        -0.55778717247113   -0.63348810020884    1.82629298233474
C         1.73854063015608    3.61498782292921    3.61168840264367
C         0.59807034016559    3.08236462838252    6.10203925815344
C         2.72021054956562    1.53902282209046    5.19967405165553
H         2.45762965058206    0.78295782300570    2.39830450021618
H         1.16277814415764    1.38426839026293    1.29738674279522
H         1.29376917451736   -1.34613377470037    2.67727176860099
C        -1.26044625490625   -1.88823680995809    1.92753866494530
H        -0.90829865320268    0.01582152549899    1.03101330898173
H         2.35741292779228    4.25724591543913    4.23804014251302
H         2.32704668448522    3.24685174065053    2.77562683213050
H         0.90596042537957    4.19298474756001    3.21966498861483
H        -0.27533393010697    3.69816664888834    5.89969853058633
H         0.34385740851266    2.36632801733508    6.88178864749519
H         1.41373343364294    3.71419676299106    6.45302513624002
H         3.45404428447568    2.34213242033594    5.25541316952473
H         2.58304164612743    1.11393123638860    6.19123865478205
H         3.08308148712266    0.75580610490417    4.54024597097732
C        -2.44451531568412   -2.15496630690506    1.37763430233369
H        -0.76333041468483   -2.66289411413081    2.49970076219093
H        -2.92340161086529   -3.11292128457307    1.48794794777401
H        -2.97844758468212   -1.42107972217721    0.79686384225951

