32
CSD_code = CESFUD | q = 0 | S = 0 | Stoichiometry = C12H14Cl2N2PtSi | MND = 4
Pt        1.02262386114981    2.71008547153011    4.32144824850824
Cl        0.81029619877144    0.82361955238372    3.08432443758578
Cl        2.39895079808698    1.69374604557874    5.80729229642014
N         1.26786868981974    4.37493587782047    5.38973907813477
C         1.03686904626734    4.41601558252074    6.70003088373865
H         0.58867050516277    3.53521187243650    7.14051708676694
C         1.36468719021697    5.51672509374911    7.47007485629502
H         1.16501713728753    5.51074004916609    8.52951169599315
C         1.95831687597434    6.60902039933930    6.85619528815173
H         2.23765483509274    7.48068727541049    7.42858125043098
C         2.18984445155537    6.55291542223597    5.49138733387159
H         2.65395973912897    7.37880788544772    4.97688206403153
C         1.83535311105909    5.42019337699968    4.77214811428101
Si        2.11243705775360    5.20380439282608    2.89010780288171
C         2.50695760377144    6.89695181894087    2.12058157170917
H         3.45840221612190    7.26949095963386    2.48405228087734
H         1.75024339679814    7.64263115009304    2.34353444970213
H         2.58861725957713    6.81767210190645    1.04212309511690
C         3.45253855233366    3.90794343929559    2.51825915500831
H         3.55609539297587    3.74620718715248    1.44915635143793
H         3.21034799036091    2.94422238745260    2.97602576207433
H         4.41825726987873    4.22094134729384    2.90481633043462
C         0.38413913661451    4.63308752470644    2.29596236243832
C        -0.30811205489850    5.20226133806364    1.23642336079473
H         0.13702018725816    6.02280666624685    0.69731069192082
C        -1.55073100644024    4.70842511829304    0.87385291326767
H        -2.09546122970362    5.13678305610236    0.04618546639673
C        -2.07500533325668    3.64689346005547    1.59542280325027
H        -3.03682100969266    3.22532133468449    1.35134729182035
C        -1.33631151928928    3.12131047326508    2.63941565894859
H        -1.69875719947704    2.28177875316609    3.21769531108365
N        -0.14256915025733    3.60516358620306    2.97559470662810

