42
CSD_code = CESFUB | q = 0 | S = 0 | Stoichiometry = C15H21O5Rh | MND = 8
Rh        4.53472102957620    3.58089893787856   -0.14035251055426
C         4.36767662007745    3.58080636697111   -1.98895362440726
O         4.29467036511952    3.58063859285231   -3.12954609515213
C         2.98955056046938    4.84372623789239    0.05993164778508
O         2.70576926918172    5.33658448163464    1.12412629892412
O         2.30975900895333    5.10081619120378   -1.06375272367803
C         1.19289599157856    5.98634690548838   -0.94050631759223
C         5.32640182168592    3.58074425194367    1.95325243524671
C         5.88899950744379    4.74288662975775    1.32468448564429
C         6.68661679694547    4.30499252518227    0.23388501533362
C         4.58921197007461    3.58043808645817    3.26203441529622
C         5.75795431584215    6.14062387523991    1.84566750877759
C         7.61814955475552    5.15643236036482   -0.57784217661133
H         1.53539678369881    6.98792294198743   -0.67339277481301
H         0.51279714479489    5.62520902052045   -0.16677727293574
H         0.70457566664954    5.99473627714106   -1.91110389745145
H         3.51160584614992    3.57750451286468    3.10676849594720
H         4.84654482492991    4.46741379024283    3.83685785436019
H         6.39014700960345    6.26128965233163    2.72771485634800
H         4.72791044377197    6.34599283003593    2.13131532174208
H         6.06712321143588    6.87094572776072    1.10147930330235
H         8.58445687965969    5.22188887637351   -0.07308730750195
H         7.22879126594397    6.16507400077012   -0.69800658644650
H         7.78239781408100    4.73340860496340   -1.56669439267565
C         2.98944980484163    2.31823499439564    0.06013276706283
C         5.88883531835381    2.41864138222323    1.32445454399332
C         6.68651974804876    2.85660523311077    0.23374480254678
H         4.85102621050273    2.69601076894299    3.83882415445968
O         2.70542551731120    1.82571312222490    1.12443280377092
O         2.30986812314158    2.06073434632856   -1.06360655336273
C         5.75758065639877    1.02089777979213    1.84534757774712
C         7.61791375189685    2.00514530498339   -0.57812080156556
C         1.19306642181647    1.17518254401704   -0.94022663039978
H         6.39007771040096    0.89996561651530    2.72714352049134
H         4.72758914635503    0.81586460345682    2.13141896185444
H         6.06622531752522    0.29052744992548    1.10098724577609
H         8.58427045097558    1.93958856001645   -0.07347547615940
H         7.22845078902522    0.99654249757934   -0.69826936822966
H         7.78208738217250    2.42818907328810   -1.56697927709125
H         1.53553510367900    0.17385677330541   -0.67213785355063
H         0.51253019599993    1.53683822675825   -0.16712200389724
H         0.70522464913164    1.16594004527696   -1.91105037233319

