291
CSD_code = CESFAI | q = 0 | S = 0 | Stoichiometry = C118H167N4OV | MND = 5
V        -3.33359052809698    1.85917605189681    2.46034272769792
O        -3.62924917347689    1.98244091323752    4.49253865778626
C        -4.28588074123244    3.16783245303740    4.95426694906369
H        -5.33966457216789    3.12984871615717    4.66172458176354
H        -3.81079928548083    4.03406183096221    4.47503275704713
C        -4.10365942846124    3.21837221712728    6.46936938844551
H        -4.92693123070335    2.70643255529255    6.97071635092382
H        -4.04267297601238    4.23824859131726    6.83826435093111
C        -2.80752615949548    2.43622826739119    6.64511462891631
H        -1.95075890448850    3.05957069554154    6.38583333137663
H        -2.67297517154619    2.03743808212220    7.64707876502512
C        -2.99710140357397    1.34477758044971    5.60135369157839
H        -2.06402052031008    0.89861178649672    5.25459582970545
H        -3.65581995469695    0.55745069582232    5.99220697074499
N        -5.08526000993787    2.08510890502556    1.86854642111581
N        -2.34465608262075    0.22211465777551    2.20804131086497
N        -2.12821979874571    3.22198346767398    2.49005503109093
N        -3.00194205494590    2.03754001382905    0.28020658237539
C        -5.21712921666521    2.90006046578590    0.68476640990331
H        -4.95018075577563    3.95627122461110    0.85039684451254
H        -6.25110547301516    2.88542620455393    0.30472658144052
C        -4.29034660743188    2.28127005114349   -0.35399297223497
H        -4.72844785904123    1.32570221813218   -0.65563218215729
H        -4.19864152664589    2.91836268335895   -1.24648076459587
C        -1.53509350632967    0.25614673839973    1.00681713830092
H        -1.19627953646884   -0.74948091466644    0.72066243805785
H        -0.64402833348597    0.89240085567403    1.14596279765583
C        -2.38573171779068    0.78895381927001   -0.14022698819485
H        -1.79108387159389    0.90769912059185   -1.05955284156784
H        -3.17492278765529    0.05456174043592   -0.32449356247486
C        -2.23731027845049    4.09025246579614    1.34800082559093
H        -1.43050741797558    4.83914802099143    1.32367903295011
H        -3.19152144255167    4.63666798246003    1.31791410863963
C        -2.10096417240639    3.17479458788742    0.12784944459899
H        -2.29152785323204    3.72279152506978   -0.80694563938531
H        -1.06986155097801    2.81091452620258    0.11095032682222
C        -6.22851190276772    2.03687827420459    2.62332041707760
C        -6.67179435072148    0.84683416859791    3.22325785609318
H        -6.07352337856180   -0.05023524221994    3.11202375295397
C        -7.89681095371443    0.79590517902744    3.86880839034046
C        -8.68032508686347    1.94103254816966    3.98998912204766
H        -9.63196105614073    1.88968755932282    4.49881022919375
C        -8.24782943076961    3.13902132421173    3.44144863158032
C        -7.04687583480892    3.17656634307161    2.75584473233018
H        -6.72950048945559    4.11889732150956    2.33063756123702
C        -8.48263490236854   -0.46416162613992    4.38663751456177
C        -8.37065756389429   -0.78383604518761    5.73833597789447
C        -9.03044094485650   -1.90325624731402    6.22507991381469
H        -8.95613146182914   -2.14840107495859    7.27383176893988
C        -9.81060142186197   -2.69860369601572    5.40183553018752
C        -9.90911073934410   -2.36443375831422    4.05873287416265
H       -10.52196182997957   -2.96963765393021    3.40938990953547
C        -9.25556024878461   -1.26038345890348    3.53523697742184
C        -7.57873268737124    0.10382042951449    6.67036763184953
H        -7.16169718747683    0.92977782197728    6.08362328105765
C        -6.41651065011723   -0.65973223275585    7.30128782923564
H        -5.85432261628258   -0.00449222513645    7.96464566252205
H        -5.74950829354122   -1.04220933240792    6.53222455348112
H        -6.76989836052961   -1.50650871424520    7.88237342308989
C        -8.48927128135727    0.70297064312487    7.74446737448817
H        -7.92969041296540    1.39167684900312    8.37483275411570
H        -8.90885972072433   -0.07521464967023    8.37711349076074
H        -9.30909803088938    1.24821895466588    7.28235653688753
C       -10.56178951265132   -3.88281805530290    5.96203065158413
H       -10.36758664094160   -3.93234036051932    7.03960174566077
C       -10.07937620356954   -5.18842543741846    5.32746910048060
H       -10.59421043707611   -6.03879357426241    5.77036313159018
H        -9.01010059211877   -5.31189737295591    5.48356182681249
H       -10.26774683311039   -5.19025630646539    4.25669305968407
C       -12.06991938283529   -3.71249722386264    5.76685124924582
H       -12.60709974489617   -4.53020327104395    6.24322044357933
H       -12.32628759431016   -3.70501615193217    4.71039641838684
H       -12.40380279958979   -2.77518716986562    6.20691137473703
C        -9.44671466374341   -0.87406998219040    2.08517230134860
H        -8.66189147333095   -0.16094877390074    1.81370164542837
C        -9.34582363771919   -2.06454723069312    1.13160447105698
H        -9.35138202369447   -1.71337187904130    0.10137928786140
H       -10.18306292654836   -2.74673846711046    1.25584775678883
H        -8.42351884311941   -2.61266249974427    1.30487006969993
C       -10.80043341880745   -0.17588081380983    1.92583821616886
H       -10.95615480419588    0.11902706019870    0.89009344385667
H       -10.84087433313129    0.71461692426716    2.54818214244171
H       -11.60919540841805   -0.84057856940523    2.22256758670641
C        -9.06516722284376    4.37090586846618    3.55539468021132
C        -9.91290881710325    4.74116222200065    2.50833266414010
C       -10.64015876650368    5.91647546557310    2.61034248397342
H       -11.28656207156244    6.20711691620215    1.79644428918678
C       -10.55466875570973    6.72817861052073    3.73139871895488
C        -9.71930028405374    6.33700048554090    4.76468917908945
H        -9.64793406698087    6.96314996995434    5.64273864363539
C        -8.97244845766766    5.16963595340608    4.69586961172674
C       -10.03187255514081    3.88330926589299    1.26831420338388
H        -9.49350938820263    2.94676503655748    1.44410676040095
C       -11.48978759657057    3.53513777566821    0.96387961402099
H       -11.53993261745436    2.82311142556424    0.14271129458632
H       -12.05668606968658    4.41819738191804    0.68004583931899
H       -11.96235447246535    3.08895436229077    1.83599173970333
C        -9.38327103566122    4.58787207621152    0.07426971960028
H        -9.44274734460572    3.96097543471705   -0.81342178951853
H        -8.33572687748921    4.79556622161945    0.28177309937186
H        -9.88315227764999    5.53089545366510   -0.13525698084900
C       -11.34891939336620    8.00805869899526    3.83106402116611
H       -11.12241478754844    8.47563401515488    4.79629646101775
C       -10.94739271926234    8.98596761118878    2.72484763852741
H       -11.47805487285551    9.92857726619868    2.84225318449365
H       -11.18492857491177    8.57929366133703    1.74492966104757
H        -9.87799940042396    9.18241826606363    2.76394190802179
C       -12.85107655730549    7.72183363834729    3.78362365453613
H       -13.12768311197594    7.02472475518943    4.57171919654997
H       -13.13139639515068    7.28566869858852    2.82804679998373
H       -13.41599707933467    8.64178157299308    3.91964292184619
C        -8.05966918114129    4.78955904209668    5.83999419770985
H        -7.61686843807641    3.81302737361552    5.61983036874167
C        -8.83832988826811    4.66434682524895    7.15044581255034
H        -8.18477533968167    4.30382091442876    7.94221437040270
H        -9.65990898800627    3.96133741478645    7.03450776215724
H        -9.24858380267112    5.62297359229046    7.45722573542725
C        -6.92457633664793    5.80640159611142    5.97654368540122
H        -6.26764186619834    5.53027341934754    6.79824222390536
H        -7.31811600953552    6.80109368371061    6.17075185959822
H        -6.33773056246774    5.84200780071158    5.06108149628197
C        -2.09001354778218   -0.82600428288061    3.04153124800178
C        -3.06281681725704   -1.25511548010888    3.97026011497525
H        -3.99534004470939   -0.70273998949609    4.01645900661573
C        -2.86159855682786   -2.36745927511114    4.76885510527997
C        -1.69620424282128   -3.12064440301319    4.63205998324618
H        -1.56685813565174   -4.02330876568192    5.21137725223739
C        -0.71444908203917   -2.72135103557290    3.74022347180431
C        -0.89389023517655   -1.57301021638801    2.98827223314804
H        -0.08298660983335   -1.27405449253668    2.34019047186686
C        -3.84377818533788   -2.89499131158266    5.75060955527418
C        -4.94406886587320   -3.63904780196532    5.30919351949318
C        -5.73942778852480   -4.29074606102224    6.23863949598557
H        -6.57600424874639   -4.87671717361191    5.89410557895629
C        -5.45928283339203   -4.24383500306099    7.59638841148008
C        -4.38716541243998   -3.47618492429288    8.01751070288051
H        -4.16425359001546   -3.43022713826601    9.07399065038022
C        -3.57648665429546   -2.79708782596014    7.11934781911137
C        -5.18425646260240   -3.82364793962896    3.82774354130576
H        -4.75673135149911   -2.96586408112782    3.30035518877388
C        -6.66315819552997   -3.91338001441943    3.45890585013765
H        -6.77159157463190   -3.85264842669271    2.37763737674836
H        -7.22502024116055   -3.10016480991839    3.91129615530329
H        -7.09741995650886   -4.85795562583944    3.77748498535761
C        -4.44123332713386   -5.07998535223458    3.36042426670076
H        -4.59486271013762   -5.23660651487395    2.29460172613182
H        -4.80289525670967   -5.95580701924350    3.89602775156546
H        -3.37482105326852   -4.97753073892818    3.54452115085381
C        -6.26568496950586   -5.03531002925149    8.59890545121401
H        -5.78044791407489   -4.93720206525120    9.57734656862873
C        -6.28999081239300   -6.52068515980306    8.23248595104400
H        -6.77680035656173   -7.09535918706761    9.01801110720250
H        -5.27661092641527   -6.89550534319271    8.10567411287937
H        -6.83426923452838   -6.68317296912226    7.30563202058271
C        -7.68857281425826   -4.48946622426300    8.71591248410895
H        -8.26540099254256   -5.07903337389897    9.42620229658787
H        -8.18494237499469   -4.52361359229549    7.75018720275866
H        -7.66995473643740   -3.45755462785842    9.06162037405903
C        -2.39845930015592   -2.00455907499436    7.64197508175790
H        -1.93930455339567   -1.47018725416277    6.80366524075173
C        -1.35054221547314   -2.94059562541817    8.24906508595960
H        -0.49424814948191   -2.36831457910646    8.59937675489975
H        -1.00573915679611   -3.65970507479085    7.51104773767857
H        -1.76641832630480   -3.48885717951460    9.09112723505715
C        -2.83457910292379   -0.97116691629262    8.68241632836826
H        -1.97970602336055   -0.37456999560246    8.99224825149998
H        -3.24775896735677   -1.45405157676233    9.56405598912205
H        -3.59167099561871   -0.30982156362683    8.27001785427955
C         0.50667882454366   -3.54447467916178    3.56443824108796
C         1.56747085304934   -3.43699803911808    4.46817667587491
C         2.70400471733663   -4.20366425905495    4.27089439757124
H         3.53039084973530   -4.11117822030928    4.95758615165068
C         2.80584984178393   -5.09004330382408    3.20836208473149
C         1.73791003970761   -5.19577781329916    2.33354576199655
H         1.80800209468800   -5.88690777945895    1.50548188309353
C         0.58702922164458   -4.43669024136397    2.49448847310641
C         1.48413401543077   -2.43721652569863    5.59814126339806
H         0.42861734095659   -2.29614141602902    5.84912281972771
C         2.03222270663319   -1.09589970993107    5.10712550383061
H         2.03741285671410   -0.36601765634532    5.91130935515999
H         1.41544747977363   -0.71197745249628    4.29897188788335
H         3.04876688722113   -1.20884579884350    4.73649613076485
C         2.20916978087984   -2.88578493141674    6.86542876865944
H         1.97943581326166   -2.20084157115898    7.67896782503491
H         3.28753439504960   -2.88757848075906    6.73025347456131
H         1.89220315107911   -3.88530833644197    7.15529361354918
C         4.04798383499850   -5.92447256366549    3.00646307309378
H         3.90442619222582   -6.53875223541861    2.10991436601836
C         5.27302403742901   -5.03590998801778    2.78091019845437
H         6.15009163435452   -5.64574996472759    2.57335491642096
H         5.47743075873895   -4.43008651187617    3.66025875857677
H         5.10587581519225   -4.36939273398293    1.93736023788336
C         4.27123612316074   -6.86341191537091    4.19379451227556
H         5.13341816218426   -7.50277334957848    4.01451345477741
H         3.39749232518759   -7.49346558320807    4.34604401889457
H         4.44705131831418   -6.29733162739910    5.10521507274721
C        -0.55755814895928   -4.58753655903856    1.51746830149303
H        -1.38447514235517   -3.95458061612798    1.85324852245593
C        -1.05957505248426   -6.03200791863953    1.47670479225086
H        -1.32800424341402   -6.36557739888613    2.47663012411568
H        -0.29886060053206   -6.70233022942756    1.08431033829398
H        -1.94009397489448   -6.10516872911847    0.84165612608793
C        -0.13799453272225   -4.11807384130777    0.12273006458554
H        -0.97932995875941   -4.17775947227276   -0.56503361749840
H         0.66970468602856   -4.73294714749193   -0.26736406226282
H         0.20649492801843   -3.08660577993354    0.16028214458087
C        -1.28010249773990    3.66945440181395    3.47369049145196
C        -0.31274851987605    2.83124058618660    4.05027361349758
H        -0.28350564045082    1.78912881589912    3.75420298201669
C         0.65948850915331    3.34976192322057    4.89478616595961
C         0.62686462689345    4.69739971455884    5.24848398730636
H         1.39993388972864    5.10216770703359    5.88503607417590
C        -0.35486503623445    5.53447911884670    4.73831727860303
C        -1.28728661165786    5.02460225541122    3.85115721015221
H        -2.02581116801817    5.69514481051529    3.43002430697624
C         1.86059267396854    2.58542747802873    5.31143321631433
C         2.85513725231912    2.32219791004870    4.36293958463801
C         4.04949943939304    1.75183443479311    4.77931666931281
H         4.82511463089636    1.55907210306429    4.05213127152225
C         4.28977722758020    1.43854841927786    6.10674159263871
C         3.28353362864035    1.68360719151531    7.02819200897340
H         3.44459928847577    1.43172497549265    8.06538163083474
C         2.07862512607523    2.25849590725597    6.65262372302226
C         2.68524691095318    2.68691768626579    2.90422872828097
H         1.70655760633453    3.15533409096628    2.76822960744633
C         2.73232936008032    1.43794166213592    2.02179361621744
H         2.57841729777343    1.70781279754819    0.97837379356349
H         1.95396527512935    0.73831402664036    2.31792876494768
H         3.69140159437723    0.93338938520854    2.10650892685015
C         3.74496775161660    3.70456607718222    2.47483733407103
H         3.56973428217730    4.01773299510221    1.44720661057541
H         4.74517890294528    3.28345294436499    2.53685750120537
H         3.70101415878517    4.58258637875566    3.11558691997168
C         5.61820921496116    0.86076246500082    6.53063627033238
H         6.26050364195663    0.79846321571325    5.64453234030576
C         5.44935833474540   -0.55133836177301    7.09298093576486
H         6.41626095031178   -0.96604330316929    7.37100239285704
H         4.99470133154622   -1.19862373829562    6.34723436280568
H         4.81209133731652   -0.54401948007891    7.97375114032983
C         6.30588262809373    1.77175277917198    7.54982333757216
H         7.29684466760301    1.39108346772104    7.78854067275483
H         5.73030522318748    1.82694977457126    8.47045899660624
H         6.40826742636211    2.77812674230786    7.14927603463210
C         1.01363038565864    2.50216767403613    7.69745631726486
H         0.18665185678037    3.04319560442042    7.22919696261815
C         0.47081421248465    1.17029299033549    8.21977912727885
H        -0.29497846534948    1.34943259699065    8.97225243859608
H         1.26441480440108    0.58147968361004    8.67448761120054
H         0.03498661443377    0.59305912240921    7.40691991200717
C         1.54255139196782    3.35977163459180    8.84885631127142
H         0.73212254133174    3.61644262893876    9.52817826932970
H         1.97858039606961    4.28058379931090    8.46727715490700
H         2.30540298919701    2.83252671008592    9.41592316132883
C        -0.34357888712394    6.98092616913978    5.06697831772953
C        -1.03284827245546    7.46253897810162    6.18134072278225
C        -0.97758345941028    8.81508237566955    6.47885184924262
H        -1.49497018014570    9.18413247848517    7.35108142320087
C        -0.27147666844940    9.70471582992439    5.68387275765863
C         0.39561101425948    9.20971723462439    4.57515037506679
H         0.94663529613647    9.89661563219629    3.94879092354395
C         0.37841210282289    7.85955178350262    4.25662559030800
C        -1.80615856424529    6.51968335382558    7.07539196406843
H        -1.83882118465230    5.53892703416974    6.58966108441952
C        -1.08374362927279    6.35942514587465    8.41482620428608
H        -1.60945937750610    5.64580006625355    9.04647916764993
H        -1.02924114710581    7.31066770577960    8.93889728264076
H        -0.07116775920237    5.99834072459863    8.25331063792270
C        -3.24521503486228    6.99281498289872    7.28763319911023
H        -3.78463507075787    6.28576220254836    7.91585134988875
H        -3.76370336595884    7.07915915863234    6.33496956465852
H        -3.27339626608043    7.96065824273695    7.78059212950523
C        -0.22466014498332   11.17717172101612    6.01279963027203
H         0.38013812656878   11.67843287556614    5.24841307542642
C         0.43981466484621   11.41045159432134    7.37116319686673
H         0.52591758941588   12.47635084247563    7.57166691335006
H         1.43586277165558   10.97309990033377    7.38482343431634
H        -0.14330369538167   10.95791131186283    8.16943906550682
C        -1.62758313149181   11.78715624463559    5.98312518568150
H        -1.57691478107380   12.86002892021804    6.15660221715390
H        -2.25762761664532   11.34549947982641    6.75121991047677
H        -2.09497865190366   11.61361256472620    5.01613653989050
C         1.13212855910285    7.36149134031939    3.04349072766294
H         1.03490664839097    6.27247343222037    2.99576764503803
C         0.53293446067939    7.94621373966079    1.76248511827565
H         1.04664891453813    7.54784035108019    0.88968809447882
H         0.62424886890297    9.02953275095245    1.74976619203330
H        -0.52264783210989    7.69182263947954    1.68953418374869
C         2.62204357710325    7.69108587241940    3.14929823560219
H         3.16156445628494    7.26399116244202    2.30632066553202
H         3.03330774096995    7.27827101921327    4.06812217927217
H         2.78793235553682    8.76538595821616    3.15206881388807

