97
CSD_code = CESGAL | q = 0 | S = 0 | Stoichiometry = C45H46Cl2N2ORu | MND = 5
C         5.35202514432569   10.57250762347674    9.15581640750850
C         3.78880661771649   11.28835149624335    7.56642788846150
H         2.80610668234615   11.68656843539678    7.83896650634143
H         3.71978772403358   10.85853926572958    6.56206550093986
C         4.90451505360399   12.32909486247126    7.69080802202104
H         5.45627825473071   12.47194668615198    6.75643598654828
H         4.53676024500041   13.30563945135770    8.01908185641149
C         3.48242589554929    9.07150207499812    8.73349843449494
C         2.44881480221746    9.04046097730668    9.67657755343748
C         1.79993111616211    7.83377121664250    9.90685273923270
H         1.01715633111478    7.79913150283640   10.65125793514453
C         2.13203841159719    6.68476196594283    9.20648881062374
C         3.09207620579068    6.76791424416855    8.20675805414061
H         3.32084094433179    5.89212192659511    7.61619914544803
C         3.76527280910068    7.95078960787420    7.94058764421701
C         1.97768337893908   10.28025740841522   10.37415668362807
H         1.09596126166118   10.66850402661713    9.86024379441834
H         2.74438868556014   11.04924314050386   10.39274238793734
H         1.70214521833187   10.05729766630931   11.40147998564320
C         1.44265413253623    5.38282151918577    9.48066151387773
H         0.80458950254750    5.11016003774671    8.64015386277197
H         0.82643415888750    5.44821234022872   10.37369590362735
H         2.17325515727181    4.58681784430859    9.61446900885690
C         4.69688427365987    8.02946506104655    6.76887119484590
H         5.24676540956725    7.09896027394850    6.65759848977901
H         5.41853213341661    8.83408430481147    6.87860334898934
H         4.11547968547150    8.19406424972682    5.85909106545400
C         6.94927530245287   12.45072799006089    9.09357806651851
C         8.14999885402764   12.19195524988058    8.43009932025701
C         9.27205353323417   12.91972319813191    8.79274667813788
H        10.21056789723994   12.72805761743137    8.29253063497978
C         9.22093593217727   13.88107796629455    9.79451204415192
C         8.02088094418620   14.09704409387490   10.45503598771033
H         7.97646205317535   14.82270375992025   11.25459131448607
C         6.87444168097693   13.38832968636780   10.12319069787359
C         8.22354138869714   11.10975769220160    7.39964735750669
H         9.23877026118522   10.99965445570957    7.02957850410079
H         7.56861318569775   11.31931458960387    6.55499037210610
H         7.90921513198993   10.16403717708473    7.84524353226445
C        10.45535597812155   14.64930397012459   10.15888783364563
H        11.25332974220924   13.96819770501556   10.45132209280276
H        10.26191497948635   15.33266996006267   10.98147788943122
H        10.80846012846393   15.22497105241176    9.30422220074683
C         5.60218342523510   13.56710288144252   10.89112466072169
H         5.75259216658908   14.23907585790427   11.73126239757429
H         5.26866773242612   12.60075249138874   11.27181781811722
H         4.81125586094932   13.97484793719816   10.26283779378281
C         7.58580683484455   10.11622623228310   11.15112365043406
H         7.93073908394608   11.12861479458677   10.93964725800930
C         8.43353009746061    9.36259373088673   12.00046254765834
C         9.66821147010069    9.86451965001633   12.44247935743077
H         9.94670076327450   10.86850487002264   12.15816808475325
C        10.50654062107291    9.08530573640794   13.20651786663960
H        11.45347176093260    9.47379251017834   13.54962582664411
C        10.14777579200872    7.78178336992802   13.50736447713376
H        10.82711381847080    7.14780666205935   14.05847787762433
C         8.93192604982505    7.23504910191795   13.09237907250096
C         8.04512643197588    8.04445345369103   12.38033848912743
C         8.72955170153895    5.79338807421188   13.36601290431856
C         8.58778035514455    5.33965691410495   14.68554691737876
C         8.54328294419537    6.22750693380612   15.79304692129869
H         8.63439543885353    7.28912444592939   15.61198453805681
C         8.39567389473203    5.76040233633930   17.06289135921585
H         8.36478469689133    6.44845369610360   17.89499653177083
C         8.27932781302599    4.37651622002614   17.30970235085625
H         8.16486775340622    4.02979168950053   18.32628063409308
C         8.30880944274254    3.49304617703743   16.27602361081984
H         8.21736912194972    2.43066320469975   16.45283036515222
C         8.45918985910142    3.93791304108619   14.93722399625539
C         8.48064093116180    3.04650005970714   13.86989387240176
H         8.37900003822182    1.98752961921508   14.06389621071258
C         8.62801496382004    3.48506147752664   12.55707402765402
C         8.63686919952204    2.57827846130426   11.46645219517379
H         8.53163900427079    1.52378440033739   11.67993057860281
C         8.76832440249560    3.02234968359017   10.18689765644504
H         8.76678522912085    2.32510957096660    9.36163082000502
C         8.91372588913540    4.40017310431700    9.92575900306623
H         9.01626272982966    4.74102217744460    8.90672386287244
C         8.92140792014750    5.30206071242220   10.94556109831600
H         9.03785550692735    6.35315180050807   10.72758308334225
C         8.76682849360291    4.88367042225146   12.29343457146165
C         5.99616788686581    6.68515213149019   12.48918326763141
H         6.56347441695102    5.75068684856072   12.55776777513268
C         5.51110615849575    7.10897816000693   13.87266540094080
H         6.35114195676776    7.22923201747260   14.55315666546490
H         4.84430874674526    6.35229427208702   14.27710656988167
H         4.97722572067264    8.05586979360876   13.80257689335489
C         4.84187510016137    6.49845935035805   11.51019772112243
H         4.27296993312152    7.42987846463973   11.41862169370811
H         4.16729962689504    5.72290478082204   11.86186209715607
H         5.22585788348836    6.20944510952022   10.53057520991267
Cl        4.60463641761870   10.05489761481401   12.12941363515264
Cl        6.98680821113550    7.88545714367260    8.92480561746754
N         4.20903897473664   10.27678636878151    8.52447410982435
N         5.77881372986771   11.74883853372952    8.70804548917081
O         6.81294996468730    7.70708493958626   11.91782167004645
Ru        6.02926980405835    9.26063559427297   10.49027764512907

