131
CSD_code = CESHUF | q = 0 | S = 0 | Stoichiometry = C44H78N3O3Si2Y | MND = 6
Y         0.81359676477508    3.89946736287557    5.99004546928519
Si       -1.63898594576422    3.39860137695405    3.60617400211068
Si       -1.49512116102826    6.16615574001873    4.71821700633041
O         1.86426535819125    2.16381645147720    5.83314814683466
O         1.07584272092245    4.69622279116898    7.88563719956664
O        -1.21981001318687    2.82900374980812    7.12146399250908
N         2.46798384240264    4.06288570167494    3.98290342298888
N         2.72051238468742    5.72547581928979    5.77630574903227
N        -0.88373838808462    4.55440928441689    4.64458700980312
C         2.42194213636887    1.32102497527116    4.97721186676278
C         2.93083902003681    0.06585143409277    5.41686741688196
C         3.42743091365189   -0.82618300092534    4.48721651081249
H         3.78614639911677   -1.78108934740933    4.83006532736666
C         3.49596991620903   -0.55888126260067    3.12261773372969
C         3.08839925926936    0.69698921850324    2.71537562655274
H         3.16202465202567    0.98889047482794    1.67892689821845
C         2.57094075233468    1.62789609490694    3.60468563889085
C         2.12348264542551    4.98703533645132    8.64316689818300
C         2.31547575659223    4.44159949891593    9.94318803476339
C         3.46892296801432    4.75864007937306   10.63573392850694
H         3.62013669261768    4.32057464689808   11.60717132497807
C         4.45155948514660    5.62128101912350   10.15728009794410
C         4.21222300098450    6.22223571662603    8.93465965975300
H         4.90429078252130    6.94378506049413    8.52803500155237
C         3.07623525214576    5.93111525763267    8.19828367802850
C         2.20349794812782    2.98112653783627    3.03907060350219
H         2.77886001120710    3.13956325560461    2.10909785421165
H         1.13969542188757    3.01867862424666    2.78436934016482
C         3.87182897297010    4.09078559656481    4.38885466258513
H         4.49457960823371    4.48526929181334    3.56862070954585
H         4.20609612950996    3.07597736010742    4.60800194465392
C         3.97359357924541    4.97607042079924    5.63630987649636
H         4.11373955268001    4.37126425709957    6.53646846339823
H         4.82585712212361    5.67118799407151    5.55117210600251
C         2.15266816687523    5.37780160852142    3.43204506695086
H         1.09030757038539    5.40492013657949    3.17532241264360
H         2.74362676659503    5.57049149634006    2.51922924618943
C         2.47962273031342    6.42558168401741    4.51534838889402
H         3.36796309637745    7.01680183980203    4.23412210358158
H         1.64158336336309    7.11215145269440    4.64840266584199
C         2.83619024185849    6.65797102435697    6.90073814552535
H         1.90365490826676    7.22720247731653    6.96888062210445
H         3.65978862417680    7.36988853598682    6.71990547905967
C         2.94149072182191   -0.26796053511423    6.90502123404370
C         3.59421088955026   -1.61877768488747    7.22070499915838
H         3.04523306831725   -2.44092714169159    6.76715079916042
H         3.59010986284149   -1.77124593769425    8.29864477533010
H         4.62779461828896   -1.64681194402823    6.88327088337076
C         1.49710906559074   -0.31322771630144    7.41697210128837
H         1.03353779294161    0.65925834404367    7.27507478608586
H         1.47411547709440   -0.56459238952462    8.47553366448561
H         0.93200035731010   -1.06462101654205    6.86715986838131
C         3.73937065368177    0.81569630350173    7.64578023029347
H         4.75393487911364    0.86298032157354    7.25313624696429
H         3.79439540435456    0.58642237992771    8.70840778075007
H         3.27043020938986    1.78960628694604    7.52146671074378
C         4.03025399293475   -1.61976297025439    2.17301800463231
C         5.47896242587121   -1.95879194537883    2.55129499057581
H         5.54066526890758   -2.34960536044304    3.56298983924707
H         6.10023873704123   -1.06746723995034    2.49263460173840
H         5.88152492873112   -2.70705178018904    1.87116557965042
C         4.01414516444324   -1.16135764216535    0.71216210929915
H         4.38121818278005   -1.96341696826489    0.07441717073392
H         4.65707114748401   -0.29635168025905    0.56690354137796
H         3.00457729984964   -0.91213116202568    0.39411890183059
C         3.15880781370271   -2.87861897780478    2.28520274818317
H         3.18218464017654   -3.28568376141906    3.29202616113411
H         3.51235737429783   -3.64564780943308    1.59866399177391
H         2.12620120447989   -2.64137046029280    2.03829344659778
C         1.23285478756404    3.58003027774750   10.58284915839224
C         1.58358584740432    3.10218114344395   11.99697187973537
H         2.47362646057279    2.47692110521236   11.99467700415210
H         0.75857037956489    2.50665787618381   12.38490263140039
H         1.73557575121924    3.94020345767672   12.67338217210384
C         0.98031649026332    2.33697567530635    9.72477576823782
H         0.72932990566784    2.62072831886429    8.70240011011817
H         0.16317405672717    1.75086491966569   10.14301723863096
H         1.87381931495974    1.71890930228031    9.70502794093120
C        -0.04016026163532    4.43098991007503   10.68110607652803
H         0.13188878563516    5.28783091069122   11.33003759322526
H        -0.86078241167141    3.84482699039399   11.09151234429122
H        -0.31468687431521    4.79470509512650    9.69644503187490
C         5.69707751950199    5.87955418035234   10.99082298801726
C         6.42473637204757    4.54973569317425   11.23390787542648
H         7.33012742485191    4.71525648098627   11.81482784988196
H         6.69986108672684    4.09425960770099   10.28492523966273
H         5.79561103277154    3.84965059080168   11.77595829557392
C         5.29005889716411    6.49994447051053   12.33467736708904
H         4.64582174616213    5.83096665712670   12.89804230881094
H         4.75208622328005    7.43104549740079   12.16953230727534
H         6.17231822670464    6.71103637258283   12.93606684620992
C         6.67505803626035    6.83587577782359   10.30254388130118
H         7.55476586311667    6.97092298480264   10.92915404549288
H         6.22163797504164    7.81183687887249   10.14600248917417
H         7.00109295894530    6.43609480416896    9.34507239818394
C        -0.87916057547557    1.65465813403124    3.86590282756472
H        -0.16980662208492    1.64433433416143    4.69203965520918
H        -0.35806697420739    1.30052950299013    2.98212348717236
H        -1.64850242964661    0.92178850508910    4.08817609642635
C        -1.47321256702227    3.84137779635881    1.74479443782416
H        -2.13270877026249    4.66617275664702    1.49726284455466
H        -1.75610534458275    3.00138321343128    1.11880594641688
H        -0.46669341763994    4.13534642078921    1.46323632830748
C        -3.52843492562821    3.13224822311714    3.82892181743274
H        -3.82667050072783    3.05809820858113    4.86976943887382
H        -3.84570145399783    2.21955795997896    3.33284803985447
H        -4.09009851549672    3.94805154779109    3.39050762015918
C        -0.86364339254766    6.99794246198238    6.32660994932688
H        -0.17368511678848    6.34862135635858    6.86512664044507
H        -1.68819722749847    7.22082923179234    6.99647743366586
H        -0.35982552440227    7.93812178102274    6.12198756441357
C        -3.39847074374378    6.38334985644052    4.75896981388627
H        -3.82563348572214    6.19840178836921    3.78009001863327
H        -3.66014350602689    7.39935738363952    5.03866528053245
H        -3.88663129609642    5.71730834967898    5.46182141820393
C        -0.99670703971492    7.28238601226295    3.22928253636470
H         0.04610264369495    7.58318135679807    3.22683834980520
H        -1.59129265588362    8.19051353628257    3.23305009120100
H        -1.19043583345394    6.77479350009550    2.29091121786041
C        -1.88607996055338    1.57048868424868    7.11115563141641
H        -1.13908113006700    0.78242570308722    7.02503033410199
H        -2.57321853574604    1.52297657811873    6.25705755513018
C        -2.66698245346174    1.53221444191895    8.42595467841042
H        -3.53105199227666    0.87460892898675    8.36663882425664
H        -2.02099659236221    1.18747541986040    9.23163656970386
C        -3.05198441070836    3.00356875455537    8.63296460148008
H        -2.82403639882052    3.33208896165665    9.64413666911083
H        -4.11211632819664    3.17108092482238    8.45124674062355
C        -2.19659084055929    3.75520645547398    7.59699893952575
H        -2.80899093112930    4.09444627005178    6.75355768097857
H        -1.66367093630168    4.60908209448190    8.01462157996994

