92
CSD_code = CESJOC | q = 0 | S = 0 | Stoichiometry = C47H41BNiP2 | MND = 4
Ni       10.95934636794659    3.84946325589569    3.57668120103092
P        12.19411769903960    4.17856133304951    5.36429310107006
P         9.57940646871033    5.39712841533745    4.38406053664746
C        11.11716780136669    2.07742171879989    2.74594293841094
C        10.02813934436597    2.60522944819654    2.38387375205131
C         8.74478302677056    2.66677402896494    1.75387609035348
C         8.05036408805372    1.47801282947440    1.51205163148097
H         8.48764845734390    0.53741216781628    1.81411387000975
C         6.80977332566321    1.51100150950413    0.90661075377043
H         6.27763502212359    0.58791334317973    0.72584969280486
C         6.24407478853952    2.71965614305185    0.53150137390716
H         5.27287577016756    2.73848445512906    0.05900605548674
C         6.92632222109552    3.90268919878648    0.76835379973052
H         6.48715170929332    4.84769878779061    0.48173582865524
C         8.16483922441983    3.87894540539487    1.37627455335265
H         8.69884015921205    4.80094676168909    1.57028404314643
C        12.10938625050039    1.04505033168250    2.73632377631010
C        11.83297740549815   -0.14310775580835    2.05260972433812
H        10.88745551162833   -0.25170161324562    1.54194666220558
C        12.76557598837101   -1.16073659001597    2.02547043706011
H        12.54471638571652   -2.07528578331039    1.49376031433206
C        13.98175567044455   -1.01544112966784    2.67534753419662
H        14.70670486153408   -1.81587937861792    2.65144260345121
C        14.26465635316130    0.16018863910459    3.35213489368695
H        15.21245599596386    0.27928628829510    3.85757215099742
C        13.33857797350942    1.18353706845131    3.38187139386807
H        13.55766310778481    2.10624838819563    3.90719375564413
C        11.56328142624560    3.42175214793522    6.89999712074666
C        11.59643043935559    2.03709778659825    7.02743305602865
H        11.99670034571773    1.44081222952894    6.21785192694915
C        11.10615117705957    1.43109915445427    8.16914643298015
H        11.13357176612389    0.35507239665499    8.26296809565862
C        10.57235147374513    2.20258335347158    9.18797258098642
H        10.18311338044997    1.72966552024960   10.07773227860239
C        10.53117057384288    3.58153820583922    9.06408130738633
H        10.10905572355544    4.18369775796178    9.85567412337993
C        11.02547735278424    4.19116532119088    7.92623799472128
H        10.98603599428764    5.26741025558855    7.82505347406900
C        13.91365792555824    4.60156895333451    5.77138020613520
C        14.72995487955905    5.01556017757440    4.72143483332879
H        14.33972944911814    5.01069510994206    3.71207549991422
C        16.02523303199259    5.42793964409986    4.96284013481303
H        16.64662936775600    5.75933754713876    4.14367447684631
C        16.52683720145681    5.41018274870672    6.25421380777848
H        17.54032043258896    5.73056186884742    6.44632251814112
C        15.73004678742862    4.97032455681500    7.29852852053790
H        16.12402549976420    4.94479460969480    8.30462194610941
C        14.42807860179797    4.56794388675461    7.06280986091916
H        13.80908590670337    4.22758047903272    7.88189168425053
C        12.20253548681859    6.93466281409168    4.38377215600927
C        12.52686173854475    7.02496299699004    3.02248264427250
C        13.40585800651345    8.00321654103007    2.58067594056016
H        13.65042759066339    8.05336419792204    1.52816241327352
C        13.97817709206593    8.91248813060593    3.45505817647772
C        13.64538625866687    8.83075218202327    4.80046455262212
H        14.07932303857463    9.53471774786819    5.49737489969221
C        12.77665625344718    7.86041118356232    5.26656720831885
C        12.43679551672806    7.78865914947795    6.72702137829370
H        11.35547951546637    7.78362889588432    6.87047284414663
H        12.85602187589213    8.63465836017004    7.26678855061623
H        12.84149115812351    6.87159960283006    7.15865616672457
C        14.94278189795061    9.95404041340806    2.97470235079727
H        15.94692540341359    9.72998938023300    3.33555352017537
H        14.66595691782772   10.93711205644921    3.35258382406541
H        14.96822025083953    9.99079450695743    1.88827819710425
C        11.92158582908483    6.08097867733487    2.02506046505146
H        12.46522039964369    6.10524558959510    1.08263552328909
H        10.88466303371739    6.36653383680282    1.82467417410945
H        11.93595302236719    5.02422184809350    2.39293796792408
C         9.12246852506144    8.13701301855044    3.89440618095598
H        10.17941653029252    8.28619283894228    4.06383261055934
C         8.31906577190975    9.21069449085704    3.55346693212896
H         8.75430665394425   10.19539647293326    3.46088555200461
C         6.96427548427436    9.02770033189416    3.33295893728522
H         6.34043835535639    9.86883462755981    3.06825880536012
C         6.41122988447609    7.76150491463236    3.44767750610788
H         5.35579580527887    7.61409005147935    3.26907759374257
C         7.20985881267209    6.68612938476321    3.78308499910779
H         6.78637529021246    5.69324808359199    3.86272716579807
C         8.57180685457180    6.86594715234586    4.02293981272663
C         8.65228019865349    4.59413309927365    5.72952673009380
C         8.66721103047482    3.20476393937705    5.79447861781807
H         9.18827945338014    2.64511088809744    5.01954004641670
C         8.02993572030861    2.54721058748846    6.82904311875611
H         8.04731470428258    1.46824352665804    6.87496453774381
C         7.36832190996150    3.27470844786428    7.80393384629016
H         6.86799143714578    2.76400363925404    8.61364162909658
C         7.34494939750446    4.65909570297550    7.74085065887667
H         6.82759231550569    5.22518546370473    8.50242698046353
C         7.98479036244729    5.32070456704253    6.70993119214695
H         7.96712368685314    6.40143459259034    6.66042181132715
B        11.30970181375072    5.78383508856834    4.96397743356698

