39
CSD_code = CESJOZ | q = 0 | S = 0 | Stoichiometry = C18H18HfN2 | MND = 12
Hf        2.08205872660632    0.61835247258435    7.51641504180352
N         4.00401472572194    0.60452359535162    6.85602034295347
N         2.35764057554978    1.80632587341713    9.14292904121082
C         1.08805286065844    2.72996449600897    6.58704229949427
C         0.09177162279231    1.72203598022532    6.66323813079624
C         0.40258881599880    0.74198388851301    5.68701399552482
C         1.59320879961225    1.13034634883341    5.04135570072014
C         2.00553855902884    2.36108569215808    5.58782780740219
C         2.28846950662812   -1.17695537486256    9.40909930123689
C         0.92718499824169   -0.83300294033742    9.31053404940786
C         0.47661135901095   -1.19025271124939    8.02406632804845
C         1.57469400171530   -1.73984436789837    7.31124165443198
C         2.69252864569073   -1.73637686835382    8.18481080930215
C         4.51458253489317   -0.21911245902391    5.88309773540745
C         5.63797815382189    0.33531942362631    5.32840341891795
C         5.83161930738192    1.57655681897520    5.96779300474189
C         4.81604718727241    1.71204912917915    6.87748557290376
C         1.37253304702100    2.41493586065509    9.88084022487920
C         1.83510440098144    2.72448562135205   11.13272334917086
C         3.16868132383578    2.27185378405363   11.19204669918549
C         3.44705615564171    1.71054579876296    9.97357524814850
H         1.07018121638901    3.67936089383547    7.10345403419296
H        -0.84744205166004    1.80174801198400    7.19637866895695
H        -0.25076925889736   -0.05801540952920    5.36640225050435
H         2.03021728121612    0.65027944931863    4.17788658312250
H         2.82832065714229    2.96191957620383    5.23171916026459
H         2.88852237375141   -1.11426415036252   10.30366248166296
H         0.30758476142380   -0.48621919397617   10.12455704578718
H        -0.55823658762038   -1.21962018579714    7.71045310275315
H         1.51142438739765   -2.27298322844057    6.37051621920124
H         3.64563541429860   -2.20976567166991    7.99675810896047
H         4.05574417452948   -1.17036371274439    5.65699694318246
H         6.25179179202020   -0.09237102927969    4.55938296458108
H         6.62179293267107    2.27710354692422    5.77888743951629
H         4.61525130826380    2.53072294842908    7.55282688446465
H         0.39821469284854    2.61301659285592    9.45959683040379
H         1.28981201169273    3.21723191080155   11.91437417663444
H         3.83511417909453    2.35343300181307   12.02870251338529
H         4.36217540733137    1.24926658766105    9.63228483674027

