71
CSD_code = CESKIX | q = 0 | S = 0 | Stoichiometry = C36H32IrNO | MND = 8
Ir        2.71626723547413    1.65931141317905   10.95758620570766
O        -0.92954099539292    1.78075464307352    9.54012841425354
N         2.19307157944429    2.63670445208522    9.22372218827822
C         0.94444108998038    3.12817155291485    9.15434079962620
C         3.06884288578546    3.03924094629623    8.29230055687169
H         4.05515190540296    2.60196449495746    8.34308976688918
C         2.76535680760822    3.97308393918290    7.32119393358079
H         3.51857659566166    4.26527383986259    6.60744474818028
C         1.49304387216161    4.52168761132242    7.28501443682789
H         1.22490291460699    5.26531494099568    6.55096079856798
C         0.56419605637167    4.06677413781264    8.20676945138187
H        -0.45280359273615    4.42808918669980    8.20112411748599
C        -0.15350021037288    2.57640728891651   10.03940730928885
C        -0.33275629259624    3.12364841435393   11.38551449420433
C         0.73842179071790    3.60180624260611   12.16714749157345
C         0.44328919385661    4.10873026239533   13.43927754783760
H         1.25885362938302    4.45667542166536   14.05467445679525
C        -0.85024788455071    4.14940062055998   13.91256973780199
H        -1.04839013334153    4.54672860238065   14.89763380090180
C        -1.90076114606224    3.66960108075619   13.13709662492709
H        -2.91220195162332    3.69677132939144   13.51310856762249
C        -1.63631012322139    3.15138683490314   11.88863724342862
H        -2.43259686666643    2.76831439321664   11.26677929985973
C         2.11245020931828    3.46281589852452   11.73470902051998
C         3.02139837031471    4.46744676565731   11.80951265147435
C         2.68779197581799    5.83891940636355   12.22401504372811
C         1.64730987652058    6.52388556138535   11.60140949366729
H         1.10318090219809    6.03973760845023   10.80216296494711
C         1.31847627054755    7.80840354838457   11.99084180973097
H         0.51013417443460    8.32988948064021   11.49838752533624
C         2.02320173047210    8.42879993365430   13.00924093529539
H         1.76593415289676    9.43282818322832   13.31352243201832
C         3.05777862729399    7.75534197796799   13.63684048263229
H         3.60649106831906    8.23359819181162   14.43572075421448
C         3.38983409832267    6.47062158426977   13.24755046831345
H         4.18377334141845    5.93812176958881   13.75079907621775
C         4.35574213310097    4.09501494225209   11.35943705700911
C         4.44469142219698    2.75317500018012   10.92489511435962
C         5.66883997188551    2.30628121665176   10.45124548621837
H         5.77935503902493    1.29308162402368   10.09090510212085
C         6.77748954405641    3.14311577189439   10.42095180763196
H         7.72434263055354    2.76516346849716   10.06078974967593
C         6.67013339059684    4.45879126708318   10.83510278128622
H         7.53053009020038    5.11136053634043   10.79320793363733
C         5.45726456232019    4.94068340730600   11.29347156185471
H         5.36266444660535    5.97524321163758   11.59099010399467
C         3.07039222743753   -0.59841579255712   10.62940361395921
C         1.63629321510647   -0.46182829271984   10.72611814033398
C         1.31527735726877    0.04342064260101   11.99534330900674
C         2.55049502606646    0.31535272379309   12.68382183964175
C         3.62768788202200   -0.19195563500610   11.86300133269078
C         0.65481098401383   -0.96802966299117    9.71982507879791
H        -0.17464141440574   -0.27358646508952    9.58702688010593
H         0.23810836917780   -1.92005453444036   10.05497496946197
H         1.12691890583430   -1.12644800523512    8.75221094377147
C        -0.05392507718991    0.12649035560951   12.58786967431281
H        -0.12309124321496    0.93081188623340   13.31809253001948
H        -0.29425309051797   -0.81097842744356   13.09525833243028
H        -0.80440680514370    0.29199070374765   11.81791714615106
C         2.66551926503032    0.61453648935935   14.14913004518568
H         3.62643455945504    1.06988704836263   14.37692096712986
H         2.57636661961712   -0.30857392835094   14.72622233368077
H         1.87823423940011    1.29341348554316   14.47104816055706
C         5.02276762863935   -0.42676295587637   12.35691713143232
H         5.68159061056013   -0.73430017597577   11.54950797658201
H         5.01063229945752   -1.22111036641774   13.10560083857384
H         5.43876413358815    0.46721818706190   12.81718721196580
C         3.78373008270188   -1.31480900181516    9.52276321595670
H         3.37885672931485   -1.04214388983674    8.54876023345808
H         3.67805330886629   -2.39592194000494    9.63921634851720
H         4.84576979861141   -1.07806445386989    9.52303039852198

