97
CSD_code = CESKOD | q = 0 | S = 0 | Stoichiometry = C50H39Br4ClIrNO | MND = 8
Ir        4.09037274030056    9.42517995288643   11.27402357952178
Br        9.40571363650770   14.48665731551123   16.09802150695665
Br        3.32666450983932   16.97824925760022   19.84878064353387
Br        6.52159524543165    6.42879040115432   19.84670029682199
Br       -3.20608562611114   11.72044138484831   19.47077320602163
Cl        3.04837785122946   10.41211745360666    9.40878333204837
O         3.28810453620695   12.94277049116908   14.43083433719572
N         4.81534834912784   11.28539278537010   11.62447271749830
C         4.48501719172329   12.17364159765319   12.57179345498732
C         5.63629733383104   11.68595200235272   10.64082418800401
H         5.87511320592284   10.95129217838359    9.88558679287514
C         6.14862411995820   12.96101845495588   10.54535214559681
H         6.80031138869983   13.21877644737908    9.72640018744635
C         5.79498942135717   13.88995872480996   11.51120355536633
H         6.16204752530325   14.90347169190814   11.47417243851101
C         4.96199186992855   13.47969510508385   12.53438444531750
H         4.67544073069388   14.16298605744884   13.31471431523204
C         3.64510634616059   11.72926398240653   13.75985792036305
C         2.42359910703940   10.91951328426840   13.37061597372569
C         2.44975306852544    9.99310384902721   12.33074126650778
C         1.25941299008260    9.33009524871128   12.02361581219670
H         1.23443759825710    8.64709532956251   11.18779613908269
C         0.09616489153198    9.54917795910935   12.73824522087060
H        -0.81376861929890    9.03774474370694   12.46094513793608
C         0.10110984071663   10.41280965177706   13.81455340187288
H        -0.79843572984408   10.57851759191412   14.38741388437569
C         1.26842276003709   11.08886388323646   14.15383888991070
C         1.31067810379016   11.98020706368305   15.30865169788904
C         0.22860889704156   11.92275743879102   16.30427620066055
C        -0.07423674909332   10.72327571595424   16.94475305258954
H         0.49601240480690    9.83661279503182   16.71021557888575
C        -1.08665132017847   10.65773338746403   17.88295522864201
H        -1.31501168484092    9.72842480271381   18.38184444842298
C        -1.80872629546095   11.80214744435698   18.17665605552818
C        -1.53494980619758   13.00357361036644   17.54426668701815
H        -2.11338176105815   13.88414819738523   17.77726020037612
C        -0.51821692921169   13.05795526560952   16.61058830868586
H        -0.30298190793715   13.98767365668928   16.10627780890026
C         2.32394103720317   12.86449238423811   15.39751479404446
C         2.52697520850610   13.84409370910037   16.47306765162204
C         2.31418076115344   13.51247922361007   17.81111278008552
H         1.98328714053323   12.51973614699759   18.07441903922211
C         2.54706995926380   14.43758441898771   18.80962298555310
H         2.38367029181880   14.17782464324595   19.84416476555147
C         3.00345936048009   15.70195702354414   18.47259435567742
C         3.23945973979427   16.04789171526498   17.15234362249473
H         3.60186215847876   17.03394797761843   16.90565069956953
C         3.00539208463515   15.11599173688112   16.16075563510969
H         3.18038382035009   15.37298206714485   15.12780630409656
C         5.75713285795198   11.73360385023084   15.11330816388117
C         6.87289792522260   11.75600704976904   14.28040126566605
H         6.89650567702744   11.13204890423306   13.39959839385387
C         7.95955432530725   12.55689305541270   14.57547279612594
H         8.82439548313826   12.56799864186675   13.93003903432158
C         7.92299530140701   13.35602623713367   15.70600314301557
C         6.82672031148462   13.34750913275913   16.55171824007806
H         6.81199528126470   13.97204585531727   17.43150921756932
C         5.75025587126789   12.53407809955847   16.25311220057385
H         4.89368166303592   12.52021392224901   16.90957630427841
C         4.54980726934869   10.96499117491987   14.75363383521044
C         4.12048196053793    9.84788689565200   15.34476422862024
H         3.17182232373627    9.44600164094060   15.01207249965788
C         4.74886055460730    9.07215458731920   16.40407855532514
C         3.96416628802435    8.11599916360883   17.05757470970374
H         2.93332947029090    7.98452301033721   16.76115138208852
C         4.47514447846663    7.33745545999515   18.07587039449133
H         3.85640383971058    6.60645689439426   18.57308779557200
C         5.79882698751670    7.50174048778359   18.44969713159915
C         6.60587561829451    8.43015600430425   17.81252977114519
H         7.63837279334761    8.54142586890722   18.10593070130677
C         6.08178784892377    9.20764645672926   16.79912995975670
H         6.72307643793083    9.91458403964649   16.29985736601872
C         4.20474281991476    7.28646017627137   12.01534201372611
C         3.93882973761082    7.33242391266828   10.61432678726284
C         5.14280560430392    7.80323878490578    9.94478911428343
C         6.06757631054541    8.15656965855308   10.92200360486929
C         5.47725736053514    7.89933507738934   12.22303332088044
C         3.35683561709260    6.61366070484683   13.05003053040082
H         3.63696657542914    6.93267192918627   14.05069336957078
H         3.49117260768744    5.53269882157443   12.98494508418450
H         2.30197871322659    6.83648774136855   12.90178966012298
C         2.82628837933458    6.63259721643129    9.89637689877912
H         2.00681508592805    6.40153976206366   10.57235815765880
H         3.19328801775832    5.69642237373380    9.47120986937342
H         2.44905433656430    7.24717738123460    9.08089677062395
C         5.30077876056217    7.82464964404762    8.46170164442375
H         4.54238698953991    8.46598988027369    8.01150638015769
H         5.17272695034454    6.81959271782776    8.05863621156598
H         6.28240231826557    8.19118527729949    8.17026128334445
C         7.48045937807815    8.60859956611944   10.72816608973979
H         7.65566214384039    8.93807557284235    9.70628321190995
H         8.16617705646805    7.78623744356786   10.94120282133518
H         7.73159684441344    9.42921221100242   11.40058229045642
C         6.27773650997273    7.86285283333530   13.48562936208006
H         6.88456561158656    8.75819770168953   13.60531990960848
H         6.95344172500913    7.00504722383675   13.46194263988069
H         5.63931318111229    7.76616270432942   14.35841319349543

