28
CSD_code = CESMUJ | q = 1 | S = 0 | Stoichiometry = C9H14AuCl2N2(1+) | MND = 4
Au        3.82971621211108   -4.45063168644641    7.40203192116499
Cl        3.25339488888206   -6.60593662606159    7.22606745620497
Cl        1.95359750716214   -3.85809798364134    6.34507918788207
N         5.61732726813740   -4.79157810044261    8.38665709366041
N         4.47657720251871   -2.42507866044319    7.58956367565505
H         3.66269563402735   -1.85549136905634    7.82241564970505
C         6.21795366628364   -5.97180709921687    8.51118300477423
H         5.67716370435741   -6.82126792483669    8.11811170106443
C         7.45370242993630   -6.09721021767934    9.11771285441671
H         7.91120944332072   -7.06879318058088    9.20797021178533
C         8.07834563614643   -4.95510877476416    9.59864742475105
H         9.04525098701322   -5.01463033535723   10.07405452125090
C         7.44149585774128   -3.73067107958032    9.46101856281977
H         7.89934863279564   -2.82603732872251    9.82891181978808
C         6.19883977604477   -3.67516683798301    8.84664089638869
C         5.41660552972622   -2.39909163918072    8.72698419497379
H         6.09157402946334   -1.54220265873818    8.65279335015224
H         4.83927207641256   -2.28337736830138    9.65159578658279
C         4.99500900236496   -1.86902792862248    6.30523754945416
H         4.17721075328039   -2.01147778521123    5.59138477061558
C         5.27568194995034   -0.37368133382579    6.42349665404483
H         5.43529233156663    0.03415296941912    5.42975908171731
H         6.16827789909078   -0.16656798598176    7.00876141691904
H         4.43094146331571    0.15157513802267    6.86391722340663
C         6.21336293254833   -2.63863836372360    5.82332525510534
H         5.98487411053520   -3.69621324787422    5.69720316826546
H         7.05367020014044   -2.53514655018746    6.50641153745114
H         6.51910887512913   -2.24779604098294    4.85676402999944

