35
CSD_code = CESMAQ | q = 1 | S = 0 | Stoichiometry = C16H6AuCl10N2(1+) | MND = 4
Au        8.37781801320240    3.80743552088344    3.76202477365354
C         8.15680360297426    4.30435377091315    1.85442289694063
C         6.95624828414890    4.37601578696592    1.16525419983321
C         6.91916916824192    4.73169075214624   -0.18652972277257
C         8.10676615536612    5.03072230171264   -0.85698939706508
C         9.32270419090466    4.98607883786399   -0.16940560371784
C         9.32531638813177    4.62201195938317    1.17414092332585
Cl        5.48707672662684    4.04637705107002    1.97952687635927
Cl        5.42594189356232    4.79862553099490   -1.01628671465744
Cl        8.07523063811740    5.45833925362713   -2.50981860148669
Cl       10.78562608621590    5.36995795195201   -0.96803249799799
Cl       10.81066272672584    4.55876360212188    2.03603479087085
C         7.63811699188160    2.03593819593396    3.26352649817880
C         6.44408828147131    1.68524094480044    3.88029405979779
C         5.80839937605533    0.47350993104593    3.62464097911620
C         6.38795339214478   -0.41745885027346    2.71709494397678
C         7.59693083842660   -0.09089721502318    2.09976570804354
C         8.21259675333848    1.13202810032573    2.38360110529452
Cl        5.74669471350616    2.79504251189718    4.99152725220633
Cl        4.33876900503998    0.08178961424839    4.40698171373865
Cl        5.62235975183195   -1.90437766520121    2.37251856800569
Cl        8.32037870900308   -1.18185738057930    1.00010855464241
Cl        9.71149972226391    1.50097976306109    1.64370839590931
N         8.94741192876159    5.71175602358888    4.22499045033074
C         9.76691945007376    8.13320233111497    4.27423843492650
H         9.05072015172786    8.77710904936815    3.76133545614789
H        10.73311849586818    8.19646744437334    3.77030568046580
H         9.87636711840372    8.46781285875625    5.30682111037773
C         9.31242202112711    6.79894524009999    4.24105682036503
N         8.75233407074252    3.15061440354647    5.65791427229746
C         8.86463924545645    1.94053606656175    7.90750107679269
H         9.00958172632107    0.87131816918040    7.74446344948331
H         7.93044786358825    2.09780298404641    8.44956253352511
H         9.69493839012376    2.33004882860777    8.49834165202285
C         8.80104812862275    2.60127633088257    6.66355936108145

