41
CSD_code = CESNEU | q = 0 | S = 0 | Stoichiometry = C21H15AuCl2N2 | MND = 4
Au        0.10981506834606   11.94777389002922   -3.80502808903499
Cl       -0.46786814363603   13.69318772722450   -5.07641188109557
Cl       -0.31031584970090   10.61026189544867   -5.54850729484421
N         0.54626676886629   12.96641630709133   -2.16608184919713
N         0.83822345498835   10.42657155485316   -2.66258062154942
C         2.53289823440195   13.32478743739674    2.04614055681760
H         1.60467329845296   13.83941401983719    2.24597156579821
C         3.44307865145088   13.10627510694380    3.06371621595817
H         3.22675392607272   13.45785310305580    4.06176023826131
C         4.63048065676093   12.44135010359583    2.80591245542919
H         5.34152668283211   12.27356300916711    3.60104239707365
C         4.90717068631850   11.99926368430335    1.52235198810348
H         5.83788527538477   11.49245519165711    1.31353848715828
C         3.99723662155456   12.20999083769804    0.50323117897829
H         4.22177716912913   11.88468494931043   -0.50299097679345
C         2.79466940062103   12.86927842617431    0.75592542395826
C         1.44583062460494   10.86517709864804   -1.52898834382990
C         1.37572157799818   12.25917326988354   -1.31555862728569
C         1.84728424676421   13.13535326169434   -0.32126204345561
C         1.26308311208021   14.37326464478405   -0.59386043980223
H         1.39088271969973   15.27601285514045   -0.02958523356228
C         0.46518564984066   14.23869615905019   -1.72976047405374
C         2.01916055935890    9.92639075960852   -0.65078936060993
H         2.47522533861230   10.28190458401294    0.25847508733105
C        -0.41584986181150   15.25191171772882   -2.29163372155720
C         0.03648189146350   16.55688801187459   -2.46820970696432
H         1.06228592070958   16.79896773961395   -2.23149856036947
C        -0.81222737219808   17.52476038888549   -2.97107054429457
H        -0.45030539334185   18.53158627460737   -3.11961115651500
C        -2.12172567346656   17.20511725733551   -3.28856011882872
H        -2.78250742732653   17.96222214035908   -3.68397077149053
C        -2.58351606569715   15.91300010173602   -3.09833259767035
H        -3.60530924630364   15.66183509739423   -3.34109298129255
C        -1.73805163254389   14.94036976783057   -2.60239878035848
H        -2.09755462922807   13.93300730963589   -2.44446072579037
C         0.79487768425534    9.12790392847712   -2.95930806747747
H         0.30214157785207    8.87481326978578   -3.88716943512323
C         1.97227656674418    8.59078962287120   -0.95739010705231
H         2.40631003801348    7.86339799683802   -0.28844651964340
C         1.35233068342049    8.17603686868154   -2.14052190597806
H         1.30119720867593    7.13539262973362   -2.41238465939694

