68
CSD_code = CESPIA | q = 0 | S = 0 | Stoichiometry = C31H27CrNO8 | MND = 6
Cr        8.86578313378575    8.45737838255039    1.83526346932997
O         9.68237161252097    6.48095397304470   -0.28311193370074
O        11.18066186769486    7.48520413167222    3.49533989254755
O        11.00385555520567   10.23811166680779    0.69224601608249
O         8.54938794402449   10.76567815692573    3.74557556408191
O         7.33955041531567    9.90365352676033   -0.31287408099514
O         6.13433443801218    7.42123211912392    2.87432445493534
O         9.72044966052286    3.58453726991627    2.99079284336926
O         9.48252972715605    5.49329329044084    5.20506718384989
N         7.47381356702213    3.65916357551648    3.84426098914349
C         9.31660151689614    7.18705086854297    0.55032706202521
C        10.21104748654834    7.76876630369973    2.95665997048254
C        10.19505447923742    9.54913648113043    1.14177172353449
C         8.57100651614029    9.83482377112331    3.06741124484143
C         7.79454473628747    9.29781223513231    0.55790189985420
C         7.41948694055340    7.18266700392651    2.59738748091695
C         7.78015118903267    5.84408070436884    2.91517909746422
H         8.81824186711334    5.59580632312934    2.76012033506011
C         6.98630744596509    4.87504010657908    3.47436892811182
C         6.63622416362594    2.62669354131153    4.42359057464003
H         5.72204220032940    2.50896758301862    3.83917669371513
H         6.35722148592510    2.88156640990333    5.45524856937607
C         7.51581608739331    1.38078580502672    4.40699046852161
H         7.48056017522439    0.90775631986262    3.42496807508521
H         7.20951047816097    0.65635855325358    5.15941426830097
C         8.91022344645920    1.95040227317804    4.67585606388434
H         9.70219140430713    1.35762152541334    4.21314719764445
C         8.89342361268642    3.38304896018953    4.08841246859392
C         9.34106343142023    4.29776838401423    5.26535864730638
C         9.44256465462891    3.44010393934116    6.43220957872806
H         9.71881041045722    3.84282253666622    7.39016099544782
C         9.20279402357142    2.14532693047181    6.14322354414846
C         9.21486795084119    1.03093877874656    7.07387473839416
C         9.40560227448953   -0.28123886834618    6.63043351130074
H         9.55957617810206   -0.47868323943890    5.58081622004245
C         9.42764227375580   -1.33198977823548    7.52686140997180
H         9.58488453674479   -2.33824018708508    7.16784109779233
C         9.25022647594646   -1.09973732380866    8.88107211869294
H         9.26545797129163   -1.92298823236164    9.57904363935083
C         9.05236857948277    0.19502990538430    9.33472003859771
H         8.90958908857159    0.38133083284672   10.38865375436102
C         9.03589907035479    1.24925986363775    8.44378514777781
H         8.86499361845671    2.25194975840581    8.80305351991893
C         5.57189149846342    8.70223696417063    2.66700020205038
H         5.58878556044046    8.94118124133816    1.59540799046351
H         6.16429227402521    9.45764404628099    3.19990522998114
C         4.14148367639933    8.68221763895562    3.18480657082644
H         3.56164510441099    7.93026974204119    2.65612396145394
H         3.68355581671347    9.65585514498243    3.03772686545177
H         4.13149821975924    8.43884233270251    4.24388358077990
C         5.53325768802814    5.05521314041040    3.70258537313041
C         4.62051163094637    4.84843407212862    2.67464018138449
H         4.97888232751211    4.58289250162511    1.69062286967856
C         3.26549078697951    4.99446635576061    2.90998179683573
H         2.56078296150468    4.83557316168218    2.10672512585409
C         2.81159798043009    5.34499558177953    4.17077600251363
H         1.75341570567231    5.46126404250400    4.35188309013433
C         3.71792194332537    5.55223738799241    5.19703770331479
H         3.36694775525107    5.83098539713902    6.17988522315482
C         5.07365280902279    5.40279717607341    4.96770790220037
H         5.78642780825085    5.57572983940972    5.76136177761374
C         9.36503502282597    2.90487167947293    1.79333826864605
H         8.36911993684071    3.22879011195583    1.46412273406005
H         9.33930865455953    1.81956449763302    1.96823297942181
C        10.40800925149507    3.24076914763390    0.74206685591967
H        10.40840425665729    4.30822377822173    0.54619202052370
H        10.18665525058022    2.70977507996450   -0.17958195804117
H        11.39469238901161    2.95372577634556    1.09474316931271

