37
CSD_code = CESQAT | q = 0 | S = 0 | Stoichiometry = C17H16MoO3 | MND = 9
Mo        4.30022186069620    4.33642393159668    2.34721327243872
O         1.56872819540421    2.91794380874156    2.23506803713321
C         4.57483956990681    2.34990674967375    3.46372909068223
H         4.46979209713481    1.56297847907338    2.70971090476012
H         5.61879261949811    2.35204740135340    3.79369024483695
O         4.60577168087872    5.16941183338440    5.29632114196609
C         3.71935731637068    1.95874258971781    4.65648495677340
H         2.66161474679655    1.92122385161170    4.38515674741347
H         3.82842910845642    2.68076759635159    5.46898527128903
C         4.12703292508588    0.57109106860676    5.19014596997489
H         4.00282577924130   -0.16695995601881    4.39474202941675
H         5.18093632815004    0.59454123821405    5.47577662924391
O         2.08340295997842    6.35600590437106    3.08226143330591
C         3.28454672127438    0.19473954141984    6.37353832379747
C         2.07791767821507   -0.47076751743143    6.19933091744551
H         1.76039846582851   -0.74356807983839    5.20275269085749
C         1.28423377115578   -0.78974143118755    7.28648315517682
H         0.34978071409991   -1.31082031742576    7.13610057824091
C         1.68633476665350   -0.44334914455648    8.56504628031434
H         1.06845447891616   -0.69371006130662    9.41486552840417
C         2.88450272257922    0.22509268329376    8.74906007731501
H         3.20362882743295    0.49892964180846    9.74431323633261
C         3.67601082409033    0.54274260083049    7.65989416891198
H         4.61112401945061    1.06428527299329    7.80829324830898
C         6.51130482153085    4.64975301080579    1.71033606801559
H         7.40057921509281    4.77001293840534    2.31896247875372
C         6.08551979470203    3.44207412782759    1.11207065274920
H         6.58865158191445    2.48519773769787    1.19719218087503
C         5.03444288010591    3.73800158847625    0.21596740328075
H         4.60549904166011    3.04653595557562   -0.50036514014450
C         4.82342126488928    5.13362344115420    0.24169967316600
H         4.19467220782175    5.69113051273702   -0.44145414538702
C         5.73705118926698    5.69918891782106    1.16683300998063
H         5.92529677225763    6.75781655338013    1.29694986957240
C         2.59240299393312    3.42899276794215    2.30766812183761
C         4.47660118463249    4.81589535316347    4.21327522629028
C         2.91907887489677    5.62581940973605    2.78220066667151

