95
CSD_code = CESQAV | q = 0 | S = 0 | Stoichiometry = C49H39N3OOsP2 | MND = 6
Os        3.72647250193878    4.40484897010497   15.86058358093458
P         4.42290755200748    4.41711842102636   18.10020358861479
P         3.27915926869805    4.25728477235947   13.56365471126042
O         1.84794542996798    6.74737876345799   16.24037418847829
N         5.48999659396602    5.47141291336636   15.38518323985088
N         5.11283537309260    2.80621229217193   15.56397472258129
N         7.68326223367678    5.24153312835144   14.82234953095486
C         6.00156459414321    6.71585592315902   15.21976576729639
C         5.43814615991599    7.98592004046036   15.33365839397850
H         4.39947111534062    8.11416207878448   15.59882145977905
C         6.24886665465916    9.06853945879094   15.09580870035661
H         5.84037088761934   10.06651195795109   15.17672148490376
C         7.59949266792713    8.91952564230762   14.74854400686044
H         8.19154990389215    9.80683080143271   14.57198227081792
C         8.17932890464515    7.68090186397258   14.62928894401369
H         9.21816982004624    7.56028436394697   14.36199735731545
C         7.38022457352129    6.56254176995654   14.86585575770507
C         6.53695807529410    4.63896848131703   15.13595480084593
C         6.35089899666414    3.21939663944718   15.22988788254957
C         7.39731968497502    2.32160852511315   14.99192596671359
H         8.35994108213218    2.72953756432624   14.72879402818460
C         7.15821532633158    0.97275258686398   15.10323159591803
H         7.94441744373394    0.25364080899916   14.92703297781603
C         5.87743232925838    0.55019091956775   15.44995396381406
H         5.64331204153560   -0.49747973893566   15.54945841204465
C         4.89812510132539    1.49644250627259   15.66766567211952
H         3.89355280727313    1.19802485929329   15.93755027433057
C         4.94217058087955    7.08357838766135   18.33512355145041
H         4.02407765066473    7.14119786641264   17.76610496142672
C         5.60879332680168    8.23109933265053   18.71669404902652
H         5.22217688614600    9.19912877599907   18.43554093837962
C         6.77825523803835    8.13464841825050   19.45266317392885
H         7.31236063706637    9.02757112242736   19.74179612138888
C         7.25716169993101    6.89048488536972   19.82518505975345
H         8.15879041303202    6.81286659274261   20.41580174925838
C         6.58984884385379    5.73809440870799   19.44683562454951
H         6.97318087020875    4.77718739095315   19.75965122018055
C         5.43703907193883    5.82799523697465   18.67593409149524
C         5.40425796969708    2.94940521567702   18.54642039538838
C         6.75153205287447    2.86602689871710   18.19928514378142
H         7.24612495489914    3.71244210513649   17.74058283742891
C         7.45676569209476    1.69874295228674   18.42743579002925
H         8.50229862227682    1.64500650411486   18.16051114556501
C         6.82367943553541    0.60091362122633   18.98668158208536
H         7.37746466496159   -0.30942446937291   19.16316358699792
C         5.47822705326310    0.66937117805934   19.30972840189623
H         4.97983071310080   -0.18987983975647   19.73451226644949
C         4.76815008657735    1.83420823341813   19.08440033743631
H         3.71444162929612    1.88803826001926   19.32192223328650
C         3.18021179084449    4.45120109743400   19.44079997125389
C         3.59630861079497    4.43130207207108   20.76977461037699
H         4.65117014950900    4.37228239909025   21.00179111784159
C         2.66291782616086    4.48515261618146   21.78688129896018
H         2.98804061201819    4.46674469429127   22.81700540748570
C         1.31144910871056    4.56674679163245   21.48689967908313
H         0.58493330898536    4.61189172937544   22.28488634634583
C         0.89504101978561    4.59092752143431   20.16666830899635
H        -0.15720157797893    4.65605036598109   19.93228666120748
C         1.82638662741024    4.53331512488865   19.14375038067788
H         1.51847128960120    4.54171726303522   18.10582644515020
C         1.54982272987396    4.27796644094523   12.97011473877153
C         0.49745374567825    4.40408652860647   13.86700020668643
H         0.71624578605364    4.45860750679846   14.92580468586858
C        -0.80654037546529    4.44674766673319   13.40346101883093
H        -1.62257315929507    4.54709865599140   14.10371711474429
C        -1.06403119855994    4.36231214509138   12.04575058978114
H        -2.08125622158573    4.39641870160164   11.68418031693314
C        -0.01540035605304    4.23453766496792   11.14749428608700
H        -0.21595993834684    4.16812188861652   10.08799433089211
C         1.28772559209114    4.19573764859027   11.60475317137187
H         2.10702267442687    4.10055264549395   10.90505315700688
C         3.92863512184929    5.58299095854523   12.48189291781394
C         4.57483142405052    5.39671260208052   11.26558797474028
H         4.73940199613243    4.40338652060668   10.87256676577732
C         5.01129587790066    6.49354410777972   10.54247116616332
H         5.52288499326071    6.34124337698583    9.60282872664347
C         4.79856493595380    7.77712033879672   11.01515278730616
H         5.15484858014279    8.62621869744838   10.45097956362895
C         4.12120370417333    7.96923844748953   12.20798568748834
H         3.93978287916871    8.96816224283240   12.57511505603373
C         3.68657462289787    6.87738285997853   12.93310387497544
H         3.15042336296811    7.00972553914127   13.86328127006766
C         3.89981485795167    2.71829031533334   12.81306083142233
C         5.24574982517260    2.58220299593712   12.47792369124390
H         5.91698585831939    3.42521891295982   12.57850261644597
C         5.73060468801717    1.36731131313043   12.02948383798106
H         6.77431950747563    1.27223738877733   11.76683044933295
C         4.88469626301672    0.27527971496024   11.92608004512572
H         5.26694929168048   -0.67223413313697   11.57583243853536
C         3.06090547033511    1.61044437745497   12.73012485947334
H         2.02412211883804    1.70783848127222   13.02200282421081
C         3.55127866411751    0.39803613881523   12.28138149521718
H         2.89266440415831   -0.45559466239219   12.21286244335226
C         2.57916242995345    5.85413533955322   16.09414481805007
H         2.59049586139175    3.34383956476973   16.18071247288296

