45
CSD_code = CESSAX | q = 0 | S = 0 | Stoichiometry = C21H19O2PSW | MND = 9
W         4.54020211843802    8.00943406923695    2.26403424372855
P         6.67898221047216    7.14815042809889    2.97417062586903
S         7.04591710182754    8.21874741679398    1.31314875494359
C         4.70521823084542    9.94972004785857    2.49868292332658
O         4.75808695574243   11.08408964183200    2.69392209766345
C         4.31548129864587    8.47431880496936    4.15425819204396
O         4.20004359872920    8.80572258162428    5.25515098877232
C         2.98782790585857    6.32709626304350    2.04404033011161
H         2.61537922437901    5.65976795332473    2.81143975366649
C         4.03698261460206    6.05063741685285    1.13858748218500
H         4.62019068639615    5.13861975920461    1.10228154061392
C         4.06476290826288    7.08083300867319    0.16917717322725
H         4.69976289083062    7.10413185016800   -0.70691282718616
C         3.04649680538172    8.00558099498383    0.47316347905861
H         2.74686467341652    8.84262918775191   -0.14284836955052
C         2.37224224292119    7.55331182023407    1.64200879032249
H         1.43804040347087    7.94511460939992    2.02617591829345
C         7.74665880813623    7.77375062332558    4.30469195796220
C         7.62192441084035    9.12250865866620    4.62850279417813
H         6.90590408364430    9.73215059768389    4.08840087218106
C         8.41227022517931    9.66706967875271    5.61778925373818
H         8.31570743158725   10.71406733330547    5.86498399059658
C         9.33462948467898    8.88173346840934    6.30625787989755
C         9.44747840480988    7.53774545167035    5.97459124540559
H        10.16106464665514    6.91691835660154    6.49764106713541
C         8.66216994350226    6.97956239553767    4.98192856205525
H         8.76442657366643    5.93248766132465    4.73249095259937
C        10.17107719276341    9.48163086318802    7.39295474068294
H         9.56592320265679    9.62830380862019    8.28781317275772
H        10.55501848793348   10.45322678916587    7.08906917078892
H        11.00641360196304    8.83411480664012    7.64711109011555
C         7.17263266448557    5.41221210680607    2.73791248985098
C         7.98907429048096    5.01700645997913    1.68712770051944
H         8.37541814008260    5.76163433349600    1.00437222881115
C         8.29648534832038    3.67807906857462    1.52409362811369
H         8.93511358046872    3.37508248853045    0.70662031720167
C         7.79436170454324    2.71870966752054    2.39469531334044
C         6.96972638592600    3.12702980691119    3.44117361454488
H         6.56975418743650    2.38788317688770    4.12089378803387
C         6.65598609040783    4.45938454681338    3.61291037893216
H         6.01059782566579    4.77931678151783    4.42128591388347
C         8.12812938684878    1.26890382859302    2.22684891117282
H         8.68508805921570    1.09940270314787    1.30910761270430
H         7.22015959783337    0.66821195529385    2.20317903621750
H         8.73122437004021    0.92376672898213    3.06637121948793

