35
CSD_code = CESWEC | q = 0 | S = 0 | Stoichiometry = C10H20Br2N2Ni | MND = 4
Ni        1.35125673159344    1.90306055617784    2.24092927230179
Br        1.77153904901158    1.54041917753810    0.10267752837308
Br        2.08260499117202    2.51590702744898    4.23641859996517
N        -0.34239224261762    2.42907647729366    2.21022123394329
N         0.36114978200314   -0.10787922061794    2.77594990108388
C        -1.24498262035246    1.53943857762877    2.44101586629321
C        -0.70271555789753    3.82946561327496    1.97605348575668
C         0.51501870303039    4.58161121853911    1.41989470433353
C        -1.11506180438901    4.43692882607070    3.32418551851921
C        -1.84598371595748    3.92988963318891    0.95789188865446
C        -0.88198121527766    0.17205136431509    2.70695701368341
C         0.88673967147936   -1.41684982809170    3.07697406789268
C         2.23106956789828   -1.50367240557002    2.34616070980981
C        -0.02597379605403   -2.57348242672604    2.66412561110114
C         1.12406381735840   -1.43746955585597    4.59674390677021
H        -2.29818471379218    1.79780932699364    2.44105433941865
H        -1.68894589938301   -0.54696144963730    2.83866029176257
H         1.41602881402162    4.37102566893048    2.01157157922457
H         2.79437693783989   -2.37365272004861    2.67172134144710
H         0.69505997531319    4.30312074970524    0.38255310211127
H         2.07467108835454   -1.56437746937245    1.27107138105149
H         0.33616928465832    5.65286592177011    1.46218267780878
H         2.81942147358269   -0.60902397213336    2.56170008296879
H        -0.28774563964969    4.39225047093672    4.02930652569163
H        -0.91462368981132   -2.62781553190302    3.28935441038310
H        -1.39765476248960    5.47640959684061    3.18437360885295
H        -0.32840530066541   -2.46416587450700    1.62408698731983
H        -1.95947877492931    3.89891783652605    3.74991644087183
H         0.51502408111347   -3.50991830092352    2.76842540918267
H        -2.79646195928960    3.61321628854850    1.37995180043021
H         1.60725665851942   -2.36856849089503    4.87932335669587
H        -1.94753475265281    4.96363880012764    0.63983660579784
H         1.76094423448617   -0.60647847191141    4.89068692783374
H        -1.62527596939213    3.32022803060264    0.08400642363950
H         0.17890755316412   -1.35211544426506    5.12951739902323

