52
CSD_code = CESXUU | q = 0 | S = 0 | Stoichiometry = C20H28Cl2OTi | MND = 8
Ti       17.92955721182317   26.05103983511446    2.10558637486270
Cl       16.27911522429315   27.11521762373813    1.11308659174979
Cl       16.53446517256518   24.49982749773768    2.80470924003055
O        18.24663937257164   26.96435245332759    3.46662921179770
C        20.10944887763470   25.21159158393913    1.77712890449172
H        20.87211534481061   25.02392625416029    2.52207105218564
C        19.19306643924621   24.26517297045565    1.26468024947118
H        19.10545208342489   23.23251293629377    1.57900453374650
C        18.50433633769591   24.86155472284796    0.18911166082192
H        17.79572681492388   24.36553189993197   -0.46325272353127
C        19.00095175646726   26.17042696312674    0.02497050882238
H        18.74046378891791   26.85158710512134   -0.77567182258955
C        19.99060591749044   26.39052535338327    1.00999102030031
H        20.64822550579895   27.24792039467138    1.07434150431051
C        18.89109972269651   27.64425382693130    4.42193904930766
C        19.13918699648003   29.03156964496381    4.26694769614610
C        20.05083825810337   29.62923450588341    5.12286996414875
H        20.30478865446436   30.66788175563010    4.99585383603344
C        20.66038682957566   28.93536969216589    6.15570034213224
C        20.24056855842090   27.64010889059601    6.41095689527284
H        20.64053834942919   27.14267760696622    7.27813942140983
C        19.33492379859947   26.98154879984698    5.59395847785422
C        18.35675848239217   29.86939999773664    3.25834467760977
C        18.76036602375807   29.52468295952368    1.81989196015249
H        18.47622986654762   28.49945344789430    1.57380916533498
H        19.83565303252741   29.64692527415119    1.69392065318532
H        18.25334909223284   30.19287364559429    1.12651227341908
C        18.58229505206751   31.37526211097533    3.45120427834640
H        17.91837829104680   31.91799739920648    2.78192358087997
H        19.60306740638230   31.66072769142647    3.20817779237175
H        18.35531838974011   31.68168912250284    4.46925596569400
C        16.85782841808426   29.60574617410302    3.47588399901640
H        16.27288981915617   30.17014287362315    2.75312962660725
H        16.56911804914355   29.91887220845312    4.47791075565954
H        16.60876703204565   28.54980119984797    3.35849870643924
C        21.70959099926160   29.58636777105236    7.00410878808056
H        22.69412610279340   29.42674704671543    6.56285926158086
H        21.71841682534572   29.16408363434262    8.00596904864365
H        21.54405655941625   30.65881331220294    7.07396054525319
C        18.76396643643371   25.62580304328848    6.00288838845662
C        19.17024323561055   25.22709442083129    7.42824432057115
H        18.64453866488169   24.31449350999363    7.70037894387907
H        18.89899684640353   25.99668628397492    8.14656662758886
H        20.23702859348762   25.02831547682343    7.49890226951065
C        17.22980043809010   25.72398465321979    5.98194684554323
H        16.85321043894706   26.01593765425223    5.00020488033312
H        16.89673403865593   26.46010626373219    6.71179714362808
H        16.79280357044981   24.76067326790061    6.23527443043739
C        19.24565375148673   24.51638071051775    5.06042015662867
H        18.89516160877336   23.55107661381260    5.42059433018735
H        20.33464886681355   24.49921545885571    5.02919247613752
H        18.85210305258747   24.66741445661464    4.05307612004732

