45
CSD_code = CESZOP | q = 0 | S = 0 | Stoichiometry = C12H24Cl2HgO6 | MND = 8
Hg       -0.00018660887855    0.00010025131542    0.00006318630167
Cl       -1.18477649830570   -1.29885090308952   -1.43738849146106
O        -1.85284012276564   -0.33086198534413    2.15733006247631
C        -3.10994593731206    0.22887948086583    1.85472888440397
C        -1.92560245963769   -1.67532825358536    2.57284248706118
H        -3.75250823391420    0.20733731550145    2.74868371267222
H        -3.59540993954497   -0.33295724421498    1.04457270936950
H        -2.54734433219430   -1.75278555804637    3.47827177677277
H        -2.35966655298688   -2.29946794811609    1.77927163251311
Cl        1.18482918605018    1.29882481845099    1.43736847178600
O         1.85284721077220    0.33085902696078   -2.15732930366855
O         2.34050958912502   -1.64521877243385   -0.11145092584612
O        -2.34051121938006    1.64521532766497    0.11144429045824
O        -0.15964259280767    2.33564130129680   -1.64801307163589
O         0.15965222485242   -2.33563925506454    1.64801031625156
C        -2.89391933211494    1.66735077505450    1.40711791916428
C        -0.51298579234721   -2.15564646383562    2.87290245774121
C         3.10995534203196   -0.22888460026945   -1.85473398685245
C         1.92560842352965    1.67532630753533   -2.57284494942526
C         2.09962086037057   -2.92979761540325    0.41489098931869
C         2.89392713414835   -1.66735682664321   -1.40712264752619
C        -2.09961442925680    2.92979264826462   -0.41489136665785
C         0.51299222371814    2.15564603439508   -2.87290582193547
C        -1.49177052102008    2.76879028795908   -1.80083013800820
C         1.49177778678594   -2.76879463069092    1.80083114676154
H        -3.85571348284644    2.20317751229576    1.39282789446196
H        -2.21022991941803    2.16620409118991    2.10813486763397
H        -0.55043639648834   -3.10977357796775    3.42130402179553
H         0.00198830770773   -1.40356974505563    3.48680319124592
H         3.75251665403090   -0.20734049177179   -2.74868895247692
H         3.59541768990309    0.33295030279786   -1.04457525827346
H         2.54735013915194    1.75278196183395   -3.47827375476369
H         2.35967126300374    2.29946549158403   -1.77927338111660
H         3.04629958697786   -3.48798356482883    0.48370741419899
H         1.39794557110923   -3.48186557446741   -0.22586249820132
H         3.85571972448684   -2.20318562551455   -1.39282812132908
H         2.21023620467348   -2.16620832336485   -2.10814053522976
H        -3.04629112300095    3.48798170507933   -0.48370940752212
H        -1.39794161165480    3.48185928975917    0.22586529991886
H         0.55044293663513    3.10977140826290   -3.42130940574788
H        -0.00198369088773    1.40356880878052   -3.48680411472769
H        -1.51188356282030    3.73278389395987   -2.33250480416135
H        -2.07346841731971    2.02865360882848   -2.36787213365370
H         1.51188772597440   -3.73278758713496    2.33250773353255
H         2.07347699186431   -2.02865710279372    2.36787260438058

