43
CSD_code = CETBUZ | q = 0 | S = 0 | Stoichiometry = C16H25PTi | MND = 11
Ti       -4.70212345008990   -3.62455714423892   -8.18331355731668
P        -6.54294882282397   -1.76662735975181   -8.15691658722634
C        -3.13816199312240   -3.30222243277140   -9.51957085001470
H        -3.31437676075561   -3.41564372097451  -10.59893962253795
C        -3.44818907346032   -1.97526733319913   -9.07246397912609
H        -3.63714719636695   -1.21851391631141   -9.83715894846590
C        -3.57875320470179   -1.54477184417102   -7.74369585489070
H        -3.75514753716252   -0.47411623042700   -7.61574743702567
C        -3.80077628728095   -2.33829862486978   -6.60202802349921
H        -4.25236020900106   -1.82469260031167   -5.74967755669918
C        -3.52305798145874   -3.73633209604372   -6.46612444840649
H        -3.96476436809111   -4.15324827071865   -5.54998273135713
C        -2.12386392756755   -4.29808424052921   -6.65165590975952
H        -2.17730351492378   -5.37899472572067   -6.82710245911156
H        -1.58355172320289   -4.16081382851125   -5.70285187156466
C        -1.30555000517770   -3.64593546381960   -7.75753856959480
H        -0.27330335867042   -4.00209774955132   -7.68058949377619
H        -1.29150872636829   -2.56032475309256   -7.61940290691156
C        -1.83172543965447   -3.98388007312725   -9.14606183003836
H        -1.93423910842622   -5.07128414054935   -9.24445899846664
H        -1.07452387614398   -3.67151715983205   -9.88063767989181
C        -4.63755207943719   -5.92647181805528   -8.39245519458668
H        -3.76940504880775   -6.56265635532383   -8.28803259614357
C        -5.11547969767203   -5.37917748422521   -9.59943821523282
H        -4.68486389710503   -5.53406221510960  -10.58156800474205
C        -6.33623227079723   -4.73195022445107   -9.32992836216588
H        -7.00494017082209   -4.32701501238661  -10.08182192100469
C        -6.62304573326972   -4.90806759113469   -7.95273583195073
H        -7.54840986715151   -4.65605802249496   -7.45106035995896
C        -5.57609767881483   -5.64411112265570   -7.38087132683933
H        -5.54563464876231   -6.01855313336647   -6.36441228241867
C        -6.44803259236653   -0.54254423718691   -9.53482082564112
H        -7.31511930712299    0.11832975347583   -9.51958727638675
H        -6.41454707654748   -1.08244795153984  -10.48155160420591
H        -5.54166064648788    0.05116361785203   -9.43764333649490
C        -6.71611443183229   -0.59736404710636   -6.73764493409630
H        -7.53287134956908    0.10016460988982   -6.92476677497706
H        -5.79418686049118   -0.04094718270683   -6.58729835775703
H        -6.92927521271898   -1.17279323113028   -5.83668413720272
C        -8.34335730873889   -2.15792924079258   -8.31155493558289
H        -8.68394206079825   -2.66564734324718   -7.41047659480483
H        -8.52217014560397   -2.80403645715496   -9.16811601119352
H        -8.91248535063651   -1.23570160263350   -8.43301180092831

