75
CSD_code = CETCUA | q = 0 | S = 0 | Stoichiometry = C30H33BCl2N8Ru | MND = 6
Ru        1.22683502573792    3.19430588535345    3.61238010982946
Cl        0.54644489886931    3.52918363381011    1.39262890293483
Cl       -1.62347855447361    1.22637990576186    7.21635604190040
B        -0.61995414183631    1.91838542204737    5.87377763348710
N         0.78433283958971    2.25663474482742    6.38537338150735
N         1.67137179562029    2.82699649112780    5.56656488555387
C         2.71231193752347    3.19822988980189    6.29991151472974
H         3.55242102942558    3.69901977886397    5.85264908792885
C         2.49733268177995    2.85257268292263    7.63472085432912
H         3.15096389920502    3.01522634914405    8.46637166890429
C         1.25699860342280    2.25677783936716    7.64556726543580
H         0.68736250323076    1.84266183076451    8.45219678806442
N        -1.23312823950140    3.22622727465320    5.34227698622590
N        -0.60935396678915    3.87558428953715    4.35036292953743
C        -1.36361702903648    4.90433763733205    4.00547091507063
H        -1.06129249667319    5.56535033341336    3.21373178887226
C        -2.51518987089390    4.93047766112959    4.79536729670255
H        -3.31831413774810    5.63684018463060    4.75725868697207
C        -2.39284755366181    3.84356100054502    5.63090105129956
H        -3.04162610672854    3.47311795280470    6.39869412083273
N        -0.56096843618504    0.96062863573997    4.68243798436258
N         0.04109504600099    1.36119360416127    3.54905598256625
C        -0.38017760978380    0.57207804974196    2.57775928132328
H        -0.07301154490451    0.73377159387538    1.56402930263576
C        -1.26076541005389   -0.38511720585412    3.08525489229897
H        -1.76155856311974   -1.16245561133982    2.54643045028355
C        -1.35091993480347   -0.09953998330856    4.42637814233912
H        -1.92048623193032   -0.56489914311725    5.20533882187924
C         3.00236774777784    2.62485232776155    2.94707924361849
N         3.82127567561742    3.38297979881677    2.19131091961865
N         3.65513478617114    1.49733959935608    3.28990282504713
C         5.12814284533439    2.75124033176739    1.98675438178795
H         5.92469017698390    3.43672088341658    2.28440125109409
H         5.27152623403866    2.47292287407784    0.94193190539291
C         5.05404314584046    1.51013867981538    2.87478444873204
H         5.31485398014864    0.59138792926160    2.34482538831703
H         5.69929482574528    1.58791866181747    3.75797731225824
C         3.60239017563649    4.72092039603200    1.85622039132457
C         2.82356710541949    5.52401352386879    2.73751227060836
C         2.81358713192870    6.91992332887885    2.54891450899171
H         2.24573619783302    7.52242709725256    3.24382827487116
C         3.44578170114959    7.51342639585997    1.48123619792243
C         4.08045959504601    6.68506575389094    0.55823982984636
H         4.51351525844523    7.13164736531921   -0.32579231800348
C         4.16750080647340    5.31015890339475    0.71746811147207
C         1.98602753044385    4.94209478261657    3.71151571121323
H         1.60982992104770    5.67488659026884    4.44235520827502
C         3.41039119472351    8.99580702791881    1.26641579662570
H         3.05969539822506    9.50892388399078    2.15807752949375
H         2.73751105571720    9.23783046641075    0.44404350512374
H         4.39987847451893    9.36998334513808    1.00967868713495
C         4.77821894062661    4.52128048710635   -0.40679820027090
H         4.74893014648011    5.11709053642351   -1.31611923933892
H         4.20674167614635    3.61390780255478   -0.58550082532468
H         5.82062252625749    4.26742367298981   -0.21491913704815
C         2.99675530078691    0.24546762657919    3.45345790927802
C         2.97994553810411   -0.40412962469188    4.68467725110279
C         2.29803074385579   -1.60926651324673    4.79311057019524
H         2.25843031434061   -2.10060902947942    5.75487117080368
C         1.67956064286734   -2.19420312504313    3.70035849081563
C         1.77854307369041   -1.56522507297673    2.46674207801816
H         1.32963026816389   -2.02904915810293    1.60008854716954
C         2.42725172655788   -0.34974203528229    2.32096229934241
C         3.72077808615396    0.12990472279626    5.87216018962178
H         4.03054777985915    1.15811411974797    5.71345022006427
H         4.60815289389722   -0.47893531493789    6.05012446022236
H         3.10133800354834    0.08258028724061    6.76539390425923
C         0.90782056676235   -3.46870669947214    3.84812968526233
H         0.90373139608300   -4.03211367063132    2.91817243443842
H        -0.12581305957599   -3.23916387875519    4.10916180588812
H         1.32476675843705   -4.08884930673258    4.63810834572564
C         2.52354257890733    0.30725966469968    0.97689867580746
H         1.97109850632373   -0.26394769282772    0.23530185140691
H         3.56218209250757    0.36801332574905    0.65073721339615
H         2.11901210265291    1.32085820163496    1.00710215061409

