57
CSD_code = CETCRE | q = 0 | S = 0 | Stoichiometry = C16H30N3OReS6 | MND = 7
C         2.27744134681923    1.74237736299142    0.33672759632538
C         0.39228238869011    0.49562705232842    3.28155159873265
C        -1.05726957786242    1.31325079924026    5.03060674946100
C        -1.70268505917078   -0.64937822479277    3.64153699398588
C        -0.50992855477973    0.83432033639618    6.37206676202658
C        -2.67081199354487   -0.18630396700695    2.55697193996532
C         5.72055423041763    2.32432819866633    1.63896619173946
C         7.09477285697921    4.10502771764624    2.51515319642125
C         7.94723556390623    2.57907590025488    0.74124344483006
C         6.63267037605128    5.40503276870460    1.86410113465775
C         8.83256980339599    1.50153838087554    1.36110174663312
C         4.17268565485096   -1.91605808866139    2.18286279438637
C         5.27180636638926   -3.46099922874443    3.68385267522367
C         4.76258018670151   -4.10627724646223    1.33714233409696
C         6.73720457495943   -3.04665894383823    3.79006661263553
C         3.49097326567648   -4.94931354725603    1.29736280566631
H        -0.61864357297633    2.28298678059339    4.78088200861817
H        -2.14339638946835    1.41738594827449    5.07558843152092
H        -2.24319813824936   -0.90753233755781    4.55490714481871
H        -1.15820428473718   -1.53093518954292    3.29281490876083
H        -0.92173947484718   -0.13829580654222    6.63236070499794
H        -0.76906538034778    1.54419654299872    7.15212256990390
H         0.57242371417416    0.75381718156239    6.32123912784730
H        -2.12203299546773    0.05259756276401    1.65007604356763
H        -3.21569513358171    0.69824435437827    2.87828994605796
H        -3.38339436505656   -0.97567181298594    2.33605367557718
H         8.15957175723336    4.15149401439630    2.75435387465059
H         6.53206621490245    3.93816569856893    3.43740050074130
H         8.53556345201893    3.46844195858295    0.50649679026224
H         7.49885949186340    2.19889102361159   -0.18080690132441
H         7.16985471714050    5.58410090040008    0.93559210375387
H         6.80959113668556    6.23855706013711    2.53751724123170
H         5.56933960962012    5.35054115483370    1.64745204767138
H         8.24147513269180    0.61409342889819    1.57027419789786
H         9.62827221086429    1.23398071584832    0.67193192150837
H         9.27595869372468    1.85342001001834    2.28993534652831
H         4.69124275523367   -2.95486269271749    4.46112623737563
H         5.16801137036379   -4.53976706892020    3.82155127744322
H         4.88781873525655   -3.58734382788047    0.38218861717670
H         5.63661293420626   -4.73955552750790    1.50786936796033
H         7.13503580482004   -3.33413117621065    4.75937528201363
H         7.32889321587924   -3.52247999044632    3.01083279179086
H         6.82749035641172   -1.96824598090021    3.68392758420495
H         3.34242990584075   -5.46759197429557    2.24256512249205
H         3.56053739599913   -5.68499074639487    0.50124887983546
H         2.62988828901581   -4.31304299781994    1.10840080045713
N        -0.73951196765965    0.38233760586609    3.96717792944746
N         6.88124380823983    2.97026970692019    1.64050715531191
N         4.71401181726569   -3.11776047479279    2.39289574975909
O         1.79602178566296    2.37706100196692   -0.49161170427982
Re        3.07626644944194    0.70596544051181    1.73105902297096
S         1.55493692456996    1.69320306931773    3.59074268920720
S         0.82299406736038   -0.56281142648269    2.02071380220191
S         5.40606294315921    0.99148727399418    0.62991121583828
S         4.42254238584976    2.73420803681119    2.65344589219243
S         3.50248798984062   -1.49341957645947    0.65969494886862
S         4.10279520759891   -0.72869713413909    3.37498107639152

