28
CSD_code = CETEPT | q = 1 | S = 0 | Stoichiometry = C8H16ClN2Pt(1+) | MND = 5
Pt        6.80874221284611    6.46506062741739    0.10751487833296
Cl        4.78752422358340    5.63040895315498    0.09750718256350
N         8.76190338846231    7.38325346659628    0.01274388212862
N         7.87745148917473    4.73235574111898    0.07086492405400
C         6.14177950627059    8.34832586914916    0.37668245067628
C         5.39759799781522    9.27343481134777    0.42236133578908
C         9.70203974871481    6.31248440202030   -0.37654272474262
C         9.30889427337375    5.00915537498092    0.30819626013587
C         9.11654059494744    7.92567354190239    1.33308918847706
C         8.84045665576109    8.46467596865188   -0.98080294220488
C         7.38065517017821    3.81910567950470    1.10959541884763
C         7.66889564162460    4.13214775253871   -1.25338264602386
H         9.66182160290672    6.19265738389686   -1.46203509454382
H        10.72954012560136    6.58631286533156   -0.10943678479341
H         9.47418328271528    5.09155513075650    1.38556790936220
H         9.92573776188788    4.18332192063232   -0.06302689624381
H         8.43505441615303    8.73566746533247    1.59021308195740
H        10.13729240613863    8.31901842203276    1.32623726898803
H         9.03888157618720    7.15904679275584    2.10361731999639
H         8.21628453733143    9.30086537902188   -0.67150502106990
H         8.48630236752624    8.11354343832186   -1.95054047163623
H         9.87086176710207    8.81614322489493   -1.08339616395350
H         7.38473401408563    4.31143391961187    2.08426578234010
H         8.01424846822271    2.92880497743699    1.16374688909671
H         6.36165519363087    3.51071750545844    0.88440492535507
H         7.99971590729541    4.80393260804582   -2.04622126861966
H         6.61104023648145    3.91724609154545   -1.40103714081849
H         8.22786543398007    3.19505068653796   -1.33738154345212

