108
CSD_code = CETFAJ | q = 0 | S = 0 | Stoichiometry = C43H60Cl2P2Ru | MND = 5
Ru        5.63144896526430    8.91272261843367    5.61248553310382
Cl        5.33830627581627   10.96841246352270    6.73703056426723
Cl        6.51232406173943    7.21903119556089    4.21215119864067
P         6.60227052557990    7.84887882592300    7.48411267979636
P         5.31268318697366   10.20322422520185    3.65560058847574
C         3.86567066548735    8.14476331329301    5.83780628305429
C         3.43729699470116    6.96789709734307    5.14588207615085
H         4.04629919825972    6.41207692569144    4.45212776106729
C         2.13796611198079    6.65632062614862    5.45098349712294
C         1.66020273995579    7.64279520794581    6.41574645950675
C         0.46893478359636    7.74160727175110    7.10162504433424
H        -0.32157665247239    7.02114359515559    6.95198254748625
C         0.30317409315695    8.78215273961561    8.01337605598660
H        -0.62943992854413    8.87375769869849    8.55107446827531
C         1.32183063936719    9.68770122810579    8.23916985650309
H         1.17997590211290   10.48887449235450    8.94919378065049
C         2.54196092323134    9.57537577422178    7.57760538852432
H         3.33424804119013   10.27636820038533    7.78630464523122
C         2.72161349292374    8.55261754740654    6.66206468147412
C         1.37928954376264    5.54635854386344    4.90942161346057
C         0.03265255364095    5.68778540905578    4.56799221706695
H        -0.44714271048529    6.64845352823150    4.68270347406530
C        -0.67309654937514    4.62231573128643    4.04347932968966
H        -1.71320766018081    4.74654751422640    3.77810199761240
C        -0.05225502546481    3.39817901824976    3.85441366987802
H        -0.60850001160067    2.56516899887209    3.45057606280487
C         1.28710850125330    3.24918713378173    4.17884736839880
H         1.77604084265127    2.29774746585019    4.02738455541142
C         1.99961772855845    4.31268148729866    4.69587530232674
H         3.04003332467446    4.19381734270662    4.95942992133671
C         6.95545057059200    6.03767922365198    7.36130248867041
H         7.46156076748375    5.86220957742271    6.40285868255390
C         5.59101090547222    5.34573570357706    7.26613770974275
H         5.74346566161960    4.28404807373673    7.05173352145817
H         5.07619232224781    5.78572363993570    6.40735176206199
C         4.68746000847006    5.47372077085202    8.49139905468758
H         5.02628937457501    4.80115022044160    9.27766448312520
H         3.68731384495403    5.13372348656467    8.20611939178021
C         4.55215548965098    6.90027496765926    9.02805889118798
H         3.90011888249389    7.45714769296127    8.35158648285186
H         4.05500372027910    6.86302156437775   10.00181444411230
C         5.84665945562039    7.71094763024278    9.16288725803431
H         5.55709285542483    8.72273169551462    9.47752149042250
C         6.85053503049347    7.16795267235769   10.18674200754931
H         7.67909403314716    7.87372373105340   10.27078665779194
H         6.35548654041628    7.14760764128834   11.16267246532909
C         7.40984604530108    5.77060389332175    9.91225658330751
H         6.67120388901355    5.02458742340775   10.19755309881270
H         8.26837397433243    5.61626770781627   10.57304069660483
C         7.86862501015727    5.51496685225105    8.47374031202284
H         7.97154301420627    4.43422783383237    8.33650056513559
H         8.86623143368998    5.93751777173907    8.33200761618373
C         8.26434571572606    8.63660515957282    7.74558369335295
H         8.89443225535652    7.98006168103004    8.35575276640564
C         8.17731247848722   10.00589484988808    8.42072243322512
H         7.74245477891064    9.91410474324102    9.41846732253933
H         7.52490670284369   10.66627108703609    7.84442382333043
C         9.56930176304679   10.62501488086754    8.52490239992085
H        10.20588550624738    9.99245669690119    9.15060543870319
H         9.49855342622831   11.60398957424515    9.00282927343765
C        10.19997926100169   10.76716719269180    7.14294312124439
H         9.59673262025095   11.45462107957316    6.54565226539577
H        11.20161414473175   11.19410653063687    7.22995425999379
C        10.27309401251481    9.40969004940746    6.44895399838890
H        10.92800722935798    8.74605577170881    7.02047500289153
H        10.70511182392678    9.51440901782440    5.45069755557207
C         8.88972814853548    8.77801578352533    6.35757510927535
H         8.95315309735458    7.80110846034378    5.86614688060351
H         8.22616236607625    9.41745897892841    5.74836254868600
C         3.24393026670675    8.89016820993699    2.44366449382058
H         2.85495625920705    8.36332216348003    1.56726905110380
H         3.36998834829215    8.15220451140155    3.23902912542957
C         4.64027372387366    9.43217765304068    2.11652003999737
H         5.26763830851284    8.56163937878556    1.88348449642084
C         4.68749487263228   10.38223574910651    0.91600771404239
H         5.73150931528247   10.58796329437150    0.67039675448482
H         4.26891401630216    9.85018990562140    0.05585581408600
C         3.92344142271468   11.70089563314191    1.07033775845482
H         2.86665918897003   11.52296845410313    0.88045126301199
H         4.26200108219025   12.38122937984405    0.28277302156141
C         4.08201929071533   12.42161729026204    2.41414699875779
H         3.27428284301478   13.15531947046557    2.49887948450056
H         5.01411475834670   12.99173286284992    2.41263117112363
C         4.05086848171091   11.55312947785834    3.67598727091178
H         4.27019434633556   12.20417870046048    4.53188075196062
C         2.70623677287946   10.87998569562279    3.97277731517471
H         2.82438429569592   10.33550750966641    4.91626598035244
H         1.94690374150052   11.65035292304227    4.13481269641365
C         2.20161724972072    9.90894924439249    2.90684283494298
H         1.36237368695126    9.35138943160525    3.33332630574511
H         1.80357616238053   10.46107752070578    2.05695318521407
C         6.87364781556582   11.04774636614480    3.09776196085021
H         6.61767020731960   11.66099258484282    2.22690695174505
C         7.41557788650833   11.97808530984234    4.18252981643980
H         7.68486886389320   11.39989699421562    5.07170118061950
H         6.64781198224415   12.69473284818533    4.48680163282205
C         8.64388763736735   12.71981622065306    3.66316340734234
H         8.35172389101423   13.35494114294352    2.82227174480932
H         9.04288243790289   13.36934871825659    4.44558825193318
C         9.71808928143594   11.73691818646459    3.20498678684675
H        10.06818943460160   11.16051270770813    4.06299373266108
H        10.57329030559480   12.28449037902283    2.80245529162309
C         9.16874485391268   10.78297442886027    2.14768611616106
H         8.89357510325964   11.35194799594314    1.25507637908319
H         9.93881936756057   10.06442905303159    1.85913413403513
C         7.94185798082721   10.04083467291118    2.67104756049454
H         8.22823439333525    9.40870282720559    3.51520641568114
H         7.54953140577058    9.37873057203204    1.89486293135507

