79
CSD_code = CETJIW | q = 0 | S = 0 | Stoichiometry = C31H42BrN4Nb | MND = 5
Nb       -2.39549944678499   19.01511030421931   10.48710054295796
Br       -9.16071671737786   23.00778518931813   11.15810791843178
N        -0.65218044121469   18.73264518228705   10.48374839310416
N        -3.33460072608195   17.82417280480705    9.00980928625685
N        -5.68305032355545   17.57754390591670    8.75901109403935
H        -5.47284847402703   16.91434061592761    8.02458691550973
N        -4.64940831398491   19.04436254967344   10.31045589845511
C         0.75212174572735   18.57551604811939   10.50655652524995
C         1.26555602983706   18.96319362197683   11.90725427735016
H         0.93162204080578   19.97171899033201   12.14257942467495
H         2.35105986915701   18.92383061017730   11.94229040913417
H         0.85786616708485   18.28054805877919   12.64876261769334
C         1.37980267672166   19.51130162153924    9.45494567333712
H         0.95954729596872   19.29545760576168    8.47508424149815
H         2.45804250933152   19.37954014435581    9.42115948279369
H         1.15247908173748   20.54367841335774    9.70884163924540
C         1.14563565073151   17.11756833894151   10.20079369948277
H         0.65417019753656   16.44966696146775   10.90392046287718
H         2.22188186925479   16.99198184256957   10.28612963195010
H         0.83824067897629   16.85098901016413    9.19307077920972
C        -4.57697635478759   18.13462718837366    9.35514142760746
C        -2.93388619267534   16.71509767055211    8.17675980683174
H        -3.76000774915077   16.35498673294920    7.54021075135596
C        -2.45783796368437   15.56142036219916    9.06805867836612
H        -1.65533336780345   15.92429002857137    9.71273645276018
H        -2.09423911755880   14.73424634522733    8.46285199729574
H        -3.27252120837295   15.20348931883556    9.69787564128065
C        -1.80475056319008   17.19996224449854    7.26282705867919
H        -2.17550940696186   17.96027541820956    6.57651418599944
H        -1.39759331467487   16.37349183771769    6.68545440159450
H        -1.02190435876347   17.64133764804877    7.88191162790079
C        -6.88798375709808   17.21162133893482    9.48859563083342
H        -6.94016248261691   17.83830134585649   10.38388145004853
C        -8.11158910464170   17.47553351158763    8.61541276991758
H        -8.16830783645029   18.52738395472436    8.34889712175565
H        -9.01612388581451   17.20522269520836    9.15306481781647
H        -8.05933495364027   16.88543092177998    7.70240308580602
C        -6.81893589152699   15.74221958707472    9.90885908270127
H        -6.80167608762937   15.09634248990603    9.03153097832015
H        -7.68670485720838   15.48299522709762   10.50947412307067
H        -5.92197385197338   15.55743940193417   10.49869550490929
C        -2.23966861664619   21.22129557086140    9.89721637516944
H        -1.20485934649959   21.56489471682080    9.77572047946353
H        -2.76523457020762   21.37977780342126    8.94426224597498
C        -2.89733275750518   21.98230785189222   10.97935746704288
C        -4.07555910775116   22.70138470282544   10.77646918044026
H        -4.52421979347048   22.72419165103740    9.79130860264171
C        -4.67295807857055   23.39665829963904   11.81247822162879
H        -5.57958572179475   23.95556963998975   11.63020799283901
C        -4.11036458630372   23.38435049336886   13.07661764692208
H        -4.57979447698579   23.92450233595032   13.88547376176244
C        -2.93325788192930   22.68318191038246   13.29496801807195
H        -2.48441145008932   22.67905138526475   14.27841363723406
C        -2.32810303175035   21.99751916801198   12.26010647513832
H        -1.39332544271285   21.46374895310455   12.42120908100105
C        -2.63461650912805   18.60211272972587   12.73772741814685
H        -1.70950240576473   18.70071532419611   13.31864566915336
H        -3.38375901668397   19.28724456995808   13.15278234061799
C        -3.11693658083399   17.21209351311714   12.76770161489080
C        -2.20899062481463   16.15020887598627   12.63695323527947
H        -1.15353044970992   16.38226311813720   12.55299242418301
C        -2.63845402270925   14.83844213464244   12.62818049517518
H        -1.92092026716217   14.03667983280045   12.52488059532923
C        -3.98717629305133   14.54212601650616   12.76249980520094
H        -4.32365595423493   13.51568388281476   12.76464350721281
C        -4.89808102855885   15.57550066988523   12.90821186833189
H        -5.94850888960271   15.35350872254245   13.03914814646661
C        -4.47159816677700   16.89117163694150   12.90712796371120
H        -5.19944724988694   17.68174659026478   13.03698485951029
C        -5.71895840354069   19.88991486936053   10.48646544522500
C        -6.04698845249343   20.33548652185925   11.77328600293032
H        -5.48566324525909   19.97206494877512   12.62147034608920
C        -7.06185544515458   21.24538293332604   11.97386905768430
H        -7.30537895921257   21.57691232816746   12.97187351031189
C        -7.76000868425216   21.73665350166577   10.88472523698398
C        -7.44521587414004   21.33609861128575    9.59753718538030
H        -7.98221594191966   21.74494729621654    8.75407881961142
C        -6.43443730619270   20.42039562011003    9.40138348425346
H        -6.16769443028339   20.12244418000599    8.39625627495970

