41
CSD_code = CETLIX | q = 0 | S = 0 | Stoichiometry = C14H20N4S2Ti | MND = 6
Ti        2.75661778535437    3.07642383672633    1.50084886026299
S         5.16656382600936    3.76811907357259    1.60855375202898
S         0.63095062228657    2.09834774996930    2.40772388845551
N         3.93909874535993    1.67873630069288    2.51492364706320
N         2.40833941351873    3.63784476267275    3.48711551952231
N         2.02333422380600    4.63562456381239    0.89647910245186
N         2.88622564794935    2.12414590670753   -0.05118759791524
C         5.14823913033526    2.27296230620877    2.44181917219578
C         6.28338663851343    1.69013219312824    3.03115158044232
C         6.14414800918333    0.49790947780929    3.69979627384840
C         4.88424657226725   -0.10082581617381    3.77954554900528
C         3.81641648776464    0.52766831350132    3.17101792144840
C         1.24279267102063    3.00182796573362    3.72663691975908
C         0.61305667139823    3.08198599999302    4.98059079108546
C         1.21037777834616    3.81727699607564    5.97583227673555
C         2.42386324307515    4.46054306672667    5.71925510540531
C         2.97991831295945    4.34104224422763    4.46144244429775
C         2.39318204531815    5.96381911969382    1.30756456234326
C         0.84569124752432    4.64608241876207    0.06490392538284
C         2.58779432838001    0.72664413844981   -0.21766641998519
C         3.48374523836849    2.68421543399489   -1.23764515401022
H         7.23194685403838    2.19599568745712    2.94435975947792
H         6.99883607200646    0.02746391245512    4.16376895937088
H         4.74454344389023   -1.03322192473827    4.30204949653081
H         2.81660679924675    0.10324914863862    3.20715932763729
H        -0.32060095372286    2.56254363495373    5.12764796998493
H         0.74979943597279    3.89577355094215    6.94987666527076
H         2.91775457093259    5.03957713813466    6.48261700059387
H         3.92302960153747    4.82074544454437    4.21357027094058
H         3.34837401058723    5.94033549662162    1.84229846155281
H         1.62649619651385    6.41199849110967    1.96499465125722
H         2.50505589504639    6.62708090231451    0.43382083630398
H        -0.02227157554836    5.04437603437273    0.61923239006714
H         0.61329533968676    3.62606703935190   -0.25993222024028
H         0.99247263237088    5.28356535491513   -0.82316586264354
H         2.03899499323160    0.35227515062623    0.65276485157931
H         3.50822492889855    0.12878676540395   -0.34387826167389
H         1.96458456817214    0.56336944370268   -1.11276763295051
H         2.83042358923675    2.54383424703537   -2.11519902568029
H         4.44779617283912    2.19388975697200   -1.46002535944754
H         3.66314878632231    3.75486867290100   -1.09109439775674

