31
CSD_code = CETMOA | q = 0 | S = 0 | Stoichiometry = C14H16Mo | MND = 12
Mo       -2.39185207664140   -0.10940230454830    3.48875162465441
C        -0.63681933117477    1.04814302378458    4.28800612029395
C        -0.68265055324297    0.79827618642425    5.79497124496345
C        -1.90576458750150   -0.05752823396884    5.75043228486687
C        -1.89265757464984   -1.40865554208165    5.32777583452733
C        -3.18955361899306   -1.74426648880148    4.86150315063912
C        -3.99987448622440   -0.58466691146871    4.98799121708589
C        -3.20439003349390    0.45680250885705    5.53768295726090
C        -0.89879486864852   -1.56272127009154    2.64166528305498
C        -0.94003901836205   -1.30206548588382    1.13639802058996
C        -1.98796745926604   -0.24084829779689    1.21422793653015
C        -1.72074639732016    1.08486761808472    1.63282272986732
C        -2.92235774817142    1.64616590079819    2.13576295666316
C        -3.93083927018565    0.65102314368119    2.03546394264783
C        -3.35118268884271   -0.51470654642111    1.46566649626871
H        -0.78212078906925    2.10452259312798    4.07634706737945
H         0.32160188953901    0.74413766854720    3.87345220459340
H        -0.82441385044510    1.70468935650946    6.38567167789324
H         0.18750420199704    0.25633165318111    6.17036899657460
H        -1.07509890434883   -2.10113638958281    5.48730682098319
H        -3.54431797451590   -2.74018017345819    4.64246816949733
H        -5.07557446456659   -0.55961394182820    4.87409411758258
H        -3.55622252909495    1.42763929261230    5.85843104442399
H        -1.22799896247229   -2.57599469649882    2.85794038451578
H         0.10998741555572   -1.44001497070888    3.02911686304927
H        -1.25777802699726   -2.16569922578162    0.55005482813315
H         0.00272668811327   -0.92300851493098    0.73722573086317
H        -0.79712541242161    1.61991734492310    1.44837888175831
H        -3.08638289736892    2.68889134214177    2.36262405513078
H        -4.98986617458645    0.81892235002675    2.18049233693830
H        -3.88043049659924   -1.40572098884860    1.15710502076954

