76
CSD_code = CETPIR | q = 0 | S = 0 | Stoichiometry = C38H34ClIrP2 | MND = 5
Cl        0.35546829687766    1.55473586285170    1.85118409854478
C         1.24810817347772    5.73387090216057    0.88111415710326
C         3.20115906747302    2.03759192594198    3.25099282767800
C         2.68241790919260    2.57612482724716    4.42701881934346
C         2.71567168090266    1.85458119564390    5.60355617921161
C         3.25817599638327    0.57902655696125    5.61402953714435
C         3.75764730450590    0.03214002421875    4.44497303122835
C         3.72884738761923    0.75451634178386    3.26374804170071
C         4.42274611433902    4.22911131604344    1.91038031259904
C         4.82740419762180    4.88965804546021    0.75243278179464
C         5.84045333190195    5.82732258033153    0.79649979870936
C         6.45720856426855    6.12373766769416    2.00199679038207
C         6.05498067387962    5.47793259259005    3.15837885807986
C         5.03950461174441    4.53787890369226    3.11619976143117
C         3.66068024714352    2.01942874606424    0.41609378511310
C         5.00219938430848    1.64546124730747    0.37714070274378
C         5.46971846612283    0.85666673028581   -0.65693595318949
C         4.60754410034922    0.44050175144512   -1.66000600903146
C         3.27582820996154    0.81799767245649   -1.63001329727680
C         2.80427025858002    1.60788113912608   -0.59628127198820
C         1.30745483302171    5.79913048731501    2.29346928087254
C        -2.18554726170191    5.70459866086571    2.12001911294343
C        -2.53030874288668    6.22589628488742    3.36065934945426
C        -3.03058367635282    7.51289480475608    3.46052015663316
C        -3.18155473943422    8.29318531848459    2.32716170578977
C        -2.83175664720394    7.78279903394024    1.08673349257908
C        -2.33342895852344    6.49878583593449    0.98498560239201
C        -1.95136852440395    3.17749144823648    3.40244180191953
C        -2.99825156123048    2.26909751808139    3.46521491086137
C        -3.26997734853849    1.61063250643999    4.65292339081708
C        -2.50076286578852    1.84826540921347    5.77860201598974
C        -1.44492998736175    2.74434138600407    5.71751258087533
C        -1.16955910933158    3.40016134747821    4.53425401314056
C        -2.53881030319573    3.40273550616930    0.60382022809653
C        -3.90660044694004    3.66660685247820    0.63252657382934
C        -4.72841678525486    3.16444514015433   -0.35876740536202
C        -4.19445816986222    2.40091866261842   -1.38564848979353
C        -2.83474123993247    2.14266197506990   -1.42194847729141
C        -2.00864762994023    2.64475887595680   -0.43177492004058
H         2.17582789566313    5.80341828757635    0.32109688225329
H         2.23806306524227    3.56383252470216    4.39947124618924
H         2.31020744750256    2.27847250163490    6.51113383618608
H         3.27803077883816    0.00723914492687    6.53037892598985
H         4.16440972408101   -0.96895670663029    4.44832390805190
H         4.10027085739829    0.30929657169965    2.35221474947630
H         0.40614929304387    6.19870200866846    0.37712461964745
H         4.34754867386587    4.64807772361588   -0.18708890563831
H         6.15143488626472    6.32960857877804   -0.10804613416923
H         7.24991804510499    6.85633241888836    2.03878691262397
H         6.53451838574199    5.70618107951886    4.09943372730885
H         4.73425467621668    4.03497718630630    4.02295890137704
H         5.67604798999086    1.97835300650170    1.15588571532309
H         6.50990746337374    0.56477267661873   -0.68255345912703
H         4.97788627420155   -0.17609527702328   -2.46607342734256
H         2.60502412613951    0.49707650176838   -2.41356421714609
H         1.76592542454938    1.90532777688672   -0.55646908097003
H         0.50771969084353    6.30922962037458    2.82453663409253
H        -2.41816845120834    5.62145114781428    4.24975417289578
H        -3.30381953917047    7.90761133745080    4.42859004377010
H        -3.57113832569525    9.29714539854550    2.40904231431344
H        -2.94762972884700    8.38917671607081    0.20012573271931
H        -2.06618876687992    6.09162337489753    0.01849895494832
H         2.27892999212862    5.91409086652629    2.76778267929546
H        -3.59153324457536    2.05983217179473    2.58694135306257
H        -4.08291509268496    0.89996958697395    4.69516887515336
H        -2.71438019390399    1.32594939994521    6.69980799904928
H        -0.83248335887737    2.92045335214996    6.59020835219301
H        -0.33192190240208    4.08383575378424    4.46566220772413
H        -4.32152680250833    4.26906072250158    1.43007727365968
H        -5.78932748477780    3.36840411987425   -0.33188743889786
H        -4.84107292289706    2.01023558202542   -2.15788473876727
H        -2.41821499191167    1.54977480246855   -2.22314115452783
H        -0.94672013102938    2.44471004239869   -0.44386334172766
Ir        0.84881843143590    3.82483103729064    1.69124820214860
P         3.01533385875105    3.06833557184789    1.75899695361186
P        -1.42707085469863    4.05469030748201    1.89241284989651

