116
CSD_code = CETPOI | q = 0 | S = 0 | Stoichiometry = C48H57BCl2N7Ta | MND = 6
Ta       -2.30738611424328    3.70699886004238    5.04002259067888
Cl       -3.25310366060922    1.80005370512391    4.24147704163144
Cl       -4.26499432811329    4.88017832332201    4.81521682107486
N         0.86573036688335    3.77413891646455    4.62336778238367
N        -0.12514898364836    2.91400365631826    4.91053554390845
N        -1.30723903223300    5.73737954339651    5.15735169028317
N        -1.54946152501023    4.28847869701161    2.73702246549005
N        -0.15636452236639    6.05712452043758    4.55206798574527
N        -0.25514013008980    4.61304516927591    2.56836201548160
N        -2.30594956728983    3.44440208251433    6.82609947180455
C        -1.82100504417804    6.85570466060010    5.65979031405816
C        -0.98548244938105    7.92669043806393    5.37487415852550
C         0.06992929799466    7.37580196829550    4.65854419584856
C         1.24552072692458    8.03537589556517    4.07557165635826
C         2.42986348922636    8.11258514741991    4.80832224991934
C         3.52475231110831    8.75250324265938    4.24920700529365
C         3.46386215406973    9.31151838541163    2.98070504811056
C         2.27831991931901    9.21443198667131    2.26502830896968
C         1.16456801428929    8.58202940668498    2.79403749714428
C         2.50201039967072    7.50058082573333    6.17460177771030
C         4.66061243566499    9.98436262091368    2.38035411246292
C        -0.10593485599057    8.46730904732532    2.00664750316571
C         2.03769568031122    3.25597897138982    5.00860261222117
C         1.80654629700236    2.01468545242412    5.56218456839239
C         0.42241377645498    1.83135044509132    5.47034146987145
C        -0.34867555410790    0.61945446233241    5.78018637534986
C        -0.55058862080278    0.20333978642492    7.09483518657997
C        -1.27514379031865   -0.95665332981428    7.32836863549131
C        -1.79593923398472   -1.70787861549819    6.28791858417982
C        -1.53760784170446   -1.30517088204751    4.98380643724429
C        -0.81227944190940   -0.15867019179359    4.71216059647589
C         0.04075129574847    0.96145193412499    8.24214919488655
C        -2.61867730630290   -2.93177925394854    6.55182352145479
C        -0.46920893455756    0.21105494943446    3.29843401661985
C         0.02625109539852    4.68262362958162    1.25828373606536
C        -1.12006799139805    4.39544046430023    0.55074293105052
C        -2.09549228211285    4.15919185731451    1.53108253731386
C        -3.53616074596246    3.92841586377443    1.34650789914341
C        -4.03895203311655    2.67386553944233    1.01012794078792
C        -5.41237895061508    2.51765066887384    0.87820075244143
C        -6.28379571840559    3.57833437369671    1.06017083423420
C        -5.75770248737572    4.83065354413297    1.35070889443464
C        -4.39525836991474    5.02374379273675    1.49369119674058
C        -3.13705355917896    1.49316647406555    0.80841250012216
C        -7.76663483751286    3.38749841982766    0.95501451713055
C        -3.84274625841718    6.39062108297547    1.77747723620032
C        -2.32258232030432    3.23695380348045    8.14645612109221
C        -3.18857019006376    2.25702897824790    8.70625955477572
C        -3.19961701078290    2.06138698803330   10.07325135657699
C        -2.37367438059274    2.79201071648065   10.91227717501859
C        -1.52160639273056    3.73932701157228   10.37660965570221
C        -1.47552924217814    3.97399201791910    9.01399042293278
C        -4.09469512039440    1.49158593622204    7.77381631817729
C        -5.30261879374070    2.36498950337815    7.41403513189891
C        -4.57277309761560    0.15190656672467    8.32965247592471
C        -0.55600570051598    5.03408610810762    8.45338056161106
C        -1.01917072575790    6.41879015290108    8.91456492502656
C         0.90658176193352    4.80800920690368    8.84388282697772
B         0.63225315151151    5.01333177828633    3.75293116006327
H         1.66253581678718    5.45555194740213    3.37524948708612
H        -2.75270013843275    6.82626490561201    6.19022137824525
H        -1.11750207500198    8.95537575589773    5.64042336747472
H         4.44407501994260    8.81711563570890    4.81394759619374
H         2.22244984086576    9.64193857019759    1.27387246457314
H         1.75484859482663    7.94697299887279    6.82992657936550
H         3.48497906073679    7.64963650509517    6.61411118140157
H         2.29882320925617    6.43132265576323    6.11904819956632
H         5.20538046272389    9.28126974769903    1.74941559581050
H         5.33720554447405   10.33799389150595    3.15435254736111
H         4.36069304367177   10.82650018681260    1.76086090250919
H        -0.32067143983560    7.42079641719150    1.79062352553912
H        -0.02673238403259    9.00511647410074    1.06536850369947
H        -0.94673265285198    8.86861502027366    2.57047036578485
H         2.95536332756187    3.78894837352423    4.86014304025704
H         2.52379963319604    1.32869973346026    5.96251770578694
H        -1.42881503281941   -1.27745574156366    8.34892207747207
H        -1.90967135034771   -1.90222369477887    4.16338279078786
H         0.07426060870320    2.02320884235458    8.02143244570277
H         1.05676057912170    0.61278307451933    8.43323577077778
H        -0.54567545245694    0.81536194815286    9.14516932493834
H        -2.50522703430458   -3.26465324648372    7.58042199198108
H        -2.33278349686050   -3.74226675908506    5.88413456339131
H        -3.67171434998169   -2.71140939077911    6.37800397185143
H         0.61353762490654    0.25834526118986    3.17446360975061
H        -0.88069407683060    1.18554967772415    3.04228271620548
H        -0.86714576590956   -0.52528564174819    2.60488137644983
H         1.01077636445800    4.93392567364319    0.91765514334765
H        -1.25190287623086    4.36696279614292   -0.51152411092699
H        -5.80501877408212    1.54083748198999    0.63232784704011
H        -6.42632478487344    5.67099594109895    1.47374757526631
H        -3.52169088808401    0.85332058551685    0.01641871739594
H        -3.09445392342868    0.90817898662757    1.72665939428375
H        -2.12647112936408    1.80370046724958    0.55202429430813
H        -8.22929310519881    4.22568451533887    0.43727282958520
H        -8.20185769440618    3.32916399580319    1.95307643288054
H        -8.00554981604036    2.46846920785793    0.42498791701837
H        -3.04459360445036    6.63735934082261    1.07649884128876
H        -3.43498077709819    6.43581759095211    2.78759594852976
H        -4.62521426075924    7.14108931259430    1.69563175237225
H        -3.86206201013216    1.32706522655671   10.50419756040893
H        -2.39834080897312    2.62384980505098   11.97898948687483
H        -0.88369765524040    4.30844642297105   11.03709152407962
H        -3.52420351632320    1.29612059517963    6.85940900657361
H        -5.93357945321304    1.85370304268818    6.69028749442440
H        -4.97303326483950    3.30784322671233    6.98323765909098
H        -5.89173769877182    2.57622512526329    8.30497053468077
H        -5.28574104608981    0.29133501965703    9.13944032586154
H        -3.73491384512462   -0.43762597531362    8.69091369162858
H        -5.06903543644494   -0.40732880503121    7.53985194445664
H        -0.63027844982932    4.98672223409821    7.36257287927238
H        -0.90058576180370    6.52318216556092    9.99049913060616
H        -2.06821077879976    6.56221717566571    8.67001546804705
H        -0.43850612217072    7.19862622770970    8.42559408261947
H         1.02845539157743    4.80417408563489    9.92390927981330
H         1.52699608559449    5.60309047442972    8.43501044339571
H         1.26775749500884    3.85830960251825    8.45620672948019

