52
CSD_code = CETYOS | q = 0 | S = 0 | Stoichiometry = C23H22MoN2O4 | MND = 6
Mo        2.00209649741253    8.29323520159759    2.34727456996225
O         1.09821679167211    9.16257935927500    3.76921938999928
O         2.72922611068405    6.69611408543635    1.61963630661461
O         1.02390032024896    8.67541731031219    1.07499836868944
O         3.37216201031481    9.20796625517628    2.40724978883584
N         0.46778200925761    6.79053037433092    2.96863775761046
N         2.96032523080774    7.25954435720678    4.27663066218828
C         0.12880512725834    8.57706170708264    4.44406486866612
C        -0.23521958235149    7.25738518981406    4.07526677586528
C        -1.14022250494367    6.55906988275926    4.87006992336970
H        -1.35335379959129    5.51955468617485    4.67428308748172
C        -1.73489232314379    7.17791457128957    5.95547748174045
H        -2.43283942584774    6.62116194036808    6.56336763572171
C        -1.45161873753356    8.50193473363166    6.27467980045180
C        -0.51380671855937    9.19076580570620    5.51906213079003
H        -0.24402172864996   10.20792007159478    5.76434449340377
C        -2.14484979181965    9.17264774872933    7.42187294932570
H        -1.53607578289626    9.97692510059700    7.82656327540499
H        -2.36547480784697    8.46004850846571    8.21343917243935
H        -3.08840125969876    9.60162926857759    7.08359778590244
C        -0.01901900512481    5.97790390816075    2.06817964816086
C        -1.44984444261594    5.51035064496846    2.05578279832220
H        -1.54605509633564    4.54335263169455    2.54944680935056
H        -1.78036319870860    5.39365492661034    1.02648458683671
H        -2.09542744316483    6.22743970533112    2.55787806446916
C         0.79328487023571    5.52413070820997    0.99440352751667
H         0.32790996625590    4.88438633721936    0.26143306591373
C         2.09816651853933    5.90942221345382    0.79789133823774
C         2.86777789399938    5.49270470464430   -0.39284355519859
C         3.83015237378970    6.38581756257059   -0.86951861737695
H         3.95902309285437    7.32989780135225   -0.34924982202855
C         4.57187800309143    6.07441718381667   -1.99253523817514
H         5.30701292565681    6.77310569781847   -2.36289373180445
C         4.37175255229516    4.86746892238952   -2.64481666496843
H         4.95301433213400    4.62290178858347   -3.52159462630634
C         3.42529589428630    3.97301485816148   -2.17111856324786
H         3.27490915335677    3.02997698037947   -2.67615858661513
C         2.67254200948148    4.28113080512894   -1.05265511036538
H         1.94886414803775    3.57201098281515   -0.67959338368983
C         3.23325586732967    5.96986132438152    4.44299130910064
H         2.76627976375537    5.28503422696596    3.74324882184376
C         4.06338353551964    5.49436321093854    5.44238531394851
H         4.25359690837860    4.43516581228597    5.52769669159289
C         4.65027502780639    6.39137347672201    6.32921808461412
C         4.34827166768256    7.73888023412819    6.15292601835496
H         4.77049900126162    8.48274984875689    6.81087191931437
C         3.50972801139362    8.12544514975444    5.12351335613846
H         3.26801388734499    9.16674204180581    4.95105787098448
C         5.57905627806922    5.93767801320029    7.40584569922496
H         6.60945602505329    6.07253475126442    7.07645161392310
H         5.43048008493200    4.88556470828326    7.63439894555893
H         5.43969175863120    6.52621268007634    8.30953619190345

