44
CSD_code = CETYAE | q = 0 | S = 0 | Stoichiometry = C18H19MoNO5 | MND = 6
C         8.76530420702943    2.36362410798150    3.99294216940350
H         9.76733138850467    2.76648128636194    3.97923963621766
C         2.57786562768773    4.16279005110127    2.01142008142894
H         1.80635373453986    4.91887133024862    2.19419233575143
H         2.81267045564184    3.64155917671283    2.94471131902708
H         3.47584009897706    4.65207734317881    1.63313183450894
C         0.16808914061373    1.40128032077836   -4.66351232423942
H         0.01863973839545    2.35008280981660   -5.17485470487344
H        -0.77326867559015    1.08375815758899   -4.22419439233749
H         0.46386749284829    0.66397820222474   -5.40984497958348
Mo        3.21823599742849    0.84282070740452    1.17282559072103
O         1.89077654137988    0.71385481390952   -0.13328890704286
O         4.54354076678949    1.92699081504165    1.92574969142849
O         2.14124643944932    3.25425077996197    1.01212446807752
H         1.39879716549561    2.75672340186040    1.38743060276360
O         2.14469654059648    0.91750386626383    2.42223468207573
O         4.07521711106601   -0.55789346781016    1.03504445607024
C         5.82091195030641    1.86479934492839    1.67374097704474
C         1.23310045253063    1.52474674415815   -3.61733331469937
N         4.17235860950540    1.70635249122289   -0.64231645695809
C         6.18937295724208    1.49207980809519   -2.06940171046529
H         5.56351326593602    0.96020556975227   -2.78253337787050
H         7.10415065031988    0.92675456663986   -1.90734060953650
H         6.46536325213380    2.45733160190411   -2.49322948241570
C         5.47662802140353    1.66761822968453   -0.75649882413741
C         6.70070488831377    1.88312591977252    2.85840146227472
C         6.96525453070932    1.31186878752214    5.18335690316196
H         6.56824053658233    0.88563289239473    6.09265044944309
C         3.28522820494385    1.71032667860449   -1.71347422482046
C         6.18823232287400    1.34598435574467    4.04170302563832
H         5.18163986266203    0.93811555450993    4.03050307308712
C         6.30481947767824    1.74027065313116    0.39437037168680
H         7.37033386046371    1.66820845220484    0.24544570907523
C         3.43524469629172    2.29498454471480   -2.97010270090589
H         4.31756641525066    2.86488463762997   -3.21317670914260
C         1.05118985026454    0.98907134326006   -2.35121157408679
H         0.12714871134341    0.49931863127424   -2.08054726552585
C         8.25441796788298    1.82090764363096    5.16133261549792
H         8.86097107010108    1.79685142443501    6.05435227516522
C         2.04811699331389    1.10691572363212   -1.38531571596847
C         7.99703966166989    2.39406344676785    2.84353383267963
H         8.39408124245759    2.83405986235062    1.94177115210069
C         2.41885040904375    2.19805197143316   -3.90176281724288
H         2.54681636791244    2.65721541796930   -4.87086862247652

