63
CSD_code = CETYIL | q = 0 | S = 0 | Stoichiometry = C21H38NiOP2 | MND = 4
Ni       13.24436553187911   10.75655002952376    4.54330219207192
P        13.43108184404270   11.97652291698110    2.74254250368184
P        12.22415757838608   12.32361576740611    5.64015493584517
O        13.75890330359413    9.00035359644691    4.33374569386531
C        12.10112098311643   13.25947194530313    2.98117717357889
H        12.25239131876417   14.10351443912154    2.30251893098272
H        11.15087859740761   12.78862396390327    2.72837874654810
C        12.06653940155024   13.73983472846825    4.43365721888201
H        11.15346506078761   14.30858161882138    4.63062850147609
H        12.92105226399113   14.39684526809029    4.61175966856820
C        12.96080678160252   11.22821699249028    1.10357341838668
H        12.80035731792733   11.99898081201266    0.34258370219072
C        11.67911550884142   10.43079725421762    1.34121141814007
H        11.48900069321003    9.75217183515674    0.51172106938597
H        10.81010979139978   11.07513520140360    1.45461175583784
H        11.79796735734644    9.83546696007048    2.25211445861575
C        14.07218235785846   10.26850191920848    0.68685128994133
H        14.28745018262709    9.59444635371690    1.51645992881597
H        14.98431604808879   10.79663698920440    0.42004601716438
H        13.76320851574327    9.67344818866844   -0.17145715515464
C        14.89118425050525   13.10716313636985    2.44454146940799
H        14.76584248102911   13.89335747300926    3.20173447112282
C        14.94048547547253   13.76445082733151    1.07108091686533
H        15.73945323200173   14.50468886997910    1.04679974518017
H        14.00572902386798   14.27071916629330    0.83869414619015
H        15.13812296580339   13.03336466580419    0.29199917947964
C        16.18157951819874   12.35984410267533    2.76969714821518
H        16.39601534083674   11.60217177449895    2.02049798319687
H        16.07902509809378   11.86291237919887    3.73480736545409
H        17.02630395246817   13.04574503278123    2.81795670579963
C        10.45151057875935   12.08914125606697    6.16904107678309
H         9.99215655872621   13.05856594634915    6.39263409147432
C        10.39589236209297   11.19037068603881    7.39941094208599
H         9.36350799299098   10.94379087701787    7.64441023388587
H        10.84523195011974   11.67145243443319    8.26530264048273
H        10.93225753244124   10.26410105567530    7.19943618365992
C         9.72358470742627   11.42818679209447    4.99992581329522
H        10.32052270194014   10.59219298461819    4.62413751595027
H         9.56712175638004   12.13225271417173    4.18580390599235
H         8.75192571262817   11.04731311919738    5.31059911561209
C        13.03038199475206   13.14792508682036    7.10379070002534
H        13.00496624418390   12.38606573785075    7.89338677717837
C        14.49823759884865   13.38729618118786    6.75339067334483
H        14.61149024529423   14.24186496206339    6.08887167434972
H        14.90682876338426   12.50526094236996    6.25600559700915
H        15.08421449955894   13.57603349124513    7.65076182985372
C        12.35389205469638   14.41684206739212    7.60809358132800
H        12.89985135812553   14.80570057391430    8.46666178949481
H        11.33034296743330   14.22365092176520    7.91954635233040
H        12.34263502821109   15.18701117554053    6.84032421723141
C        13.42810427355897    9.15122061290442    5.54862127503546
H        12.49343199436291    8.68170757644766    5.91822333581491
C        14.41240890977767    9.49913432157711    6.59409516886825
C        15.71966687924322    9.83539870167464    6.22650128738675
H        15.99373931271505    9.78099637126399    5.18017656659763
C        16.64260769240446   10.20999514447124    7.18242518499919
H        17.64993614452158   10.46891839606522    6.88729513955200
C        16.28096878835407   10.25275026438546    8.51979578802190
H        17.00265023104050   10.54815688073727    9.26767785844416
C        14.99205000137347    9.90679015926414    8.89694640203267
H        14.71278137149619    9.93042793385295    9.94127512412500
C        14.06529751388013    9.52850985903186    7.94634579281938
H        13.06119250282891    9.25774056433328    8.24459576518334

