52
CSD_code = CETZOT | q = 0 | S = 0 | Stoichiometry = C23H22MoN2O4 | MND = 6
Mo        2.71475672384894    6.22365675507293    1.60039314263264
O         1.56579463157053    6.36720436395807    0.42510123777853
O         3.07168674277513    7.65584266706222    2.33423672094332
O         4.29061557549298    6.11508366205810    0.55252646450307
O         1.59100467808685    5.46268038939787    2.93361899988443
N         2.84052861037961    4.04873736076295    1.09425976257602
N         4.30767548895684    5.36146711456396    3.15466755410165
C         4.74353298893129    4.96638706088566    0.08727776801811
C         5.92708828379312    4.85720330213827   -0.64390598992856
H         6.46677238297154    5.75831514370242   -0.89452423220858
C         6.40566917244314    3.61212501851185   -1.00637274229071
H         7.32997927243152    3.53962194738758   -1.56088836788254
C         5.73709719994854    2.44770893916588   -0.64329026992329
C         4.53886651023525    2.54756351758560    0.05084850752626
H         4.03897444868546    1.64389381130385    0.36598982046128
C         4.01040118013666    3.79156651329945    0.38537627578705
C         6.29048704272619    1.10439099309081   -1.01931383538579
H         6.05428688320589    0.87841758119250   -2.05960992324163
H         5.86635774636819    0.31962128007956   -0.39763302706241
H         7.37307209251127    1.09003126822050   -0.91361560028813
C         1.72955192541481    3.37303777858703    0.96200706383894
C         1.53367526886690    2.28421411566994   -0.05883235471078
H         2.20952198561457    2.41583334012377   -0.90067680500232
H         0.50777365619984    2.31197631079133   -0.41835223481600
H         1.70634225825312    1.30285832716385    0.38293830722625
C         0.60183947647087    3.67937218352460    1.76908570264028
H        -0.29559323795395    3.10601346445745    1.59891797284521
C         0.56587002778249    4.70150349208265    2.68847648789320
C        -0.66443671021949    5.03798586351033    3.43500483503389
C        -1.63080043241936    4.09909031555318    3.79021631681812
H        -1.48727948834084    3.05661508951598    3.54870271306602
C        -2.76267970462428    4.49709449159120    4.47785346786073
H        -3.50674343456550    3.76491646675095    4.75592000456854
C        -2.94533782936460    5.82959156821280    4.81150424752723
H        -3.83423869986752    6.13470247905252    5.34364412574891
C        -1.98720934219704    6.76884547177540    4.46214535888623
H        -2.13019799416607    7.80754822478380    4.71987679238099
C        -0.84933934220084    6.37785833582205    3.78333754141642
H        -0.09078776755376    7.09588996059401    3.48792949811810
C         5.39414070017599    6.11798146319643    3.27995236022061
H         5.50183891381549    6.90804145132428    2.54731685314635
C         6.32636583042487    5.93160568746774    4.28448340320180
H         7.18956026127052    6.57655020029170    4.34308622914951
C         6.13980351577544    4.91902457193983    5.22111952997953
C         5.00156076496814    4.13167944877057    5.07741458440187
H         4.79836054354470    3.33021209718446    5.77148668466294
C         4.12410391090834    4.38666478715778    4.03886421370720
H         3.23111151543274    3.78405158760031    3.91207724558848
C         7.12646866740283    4.67817189911705    6.31493459820403
H         6.65998870820509    4.17461027252649    7.15765594215929
H         7.56429555974536    5.61429677967526    6.65239684683821
H         7.93382283769918    4.04534378474318    5.94547020139795

