35
CSD_code = CETZOS | q = 0 | S = 0 | Stoichiometry = C11H15BrFeN3O3P | MND = 6
C         5.47266563942161    3.38729048221504   11.71190251969328
C         4.27178723163736    3.24312941788358   12.43479101615060
H         4.14782502370337    3.80999853020883   13.34310288305663
C         3.29359447227544    2.39478487275438   11.98108422214053
H         2.36985539309616    2.27605507283312   12.52556236494853
C         3.51184113795026    1.68940935790762   10.80766536845485
H         2.77691366783855    1.01003878485098   10.40972997795690
C         4.70816062325736    1.88751211070807   10.13279641027590
C         6.13520953937843    1.44479412458219    8.25865146296801
C         8.26369759778407    2.67158079775312    7.67437850455578
C         6.27159738636892    3.83227371173436    8.07893752710760
C        10.03782159752936    0.89923503829896    9.60163821492418
H        10.05973351807164    0.61702000284465    8.54920406118346
H        10.50750675523367    0.11786738985667   10.19990646044572
H        10.58352970865764    1.83456179132778    9.72984646394661
C         8.50080144796624    1.30198086538963   11.93754843327955
H         7.52225040471542    1.35030064789833   12.41452765307518
H         9.04577614504038    2.22056431701654   12.15352108878065
H         9.05453459325648    0.44749359470316   12.32643450502866
C         7.66477172039411   -0.57605414020669    9.99333511556662
H         6.68048007999466   -0.63813839641473   10.45691305413429
H         8.34453877647630   -1.26771782475828   10.49152638242960
H         7.57481263734959   -0.84437138636065    8.94159720998348
N         5.68429837399017    2.71618807715979   10.55735448784703
N         4.97007967648975    1.22071162844869    8.97021163356572
H         4.27959336588160    0.57766337764022    8.59898308093108
N         6.44656401843510    4.16073499613309   12.21315927009135
H         7.25495349558848    4.39802158980333   11.64733061495555
H         6.23201013749372    4.75665952108381   12.99211979165192
O         6.34828807922375    0.82097920148486    7.24460232158431
O         8.87259503447968    2.64862053044851    6.71228910691371
O         5.64066075362725    4.41756345748561    7.32447524448366
P         8.30255823923124    1.13632144846131   10.12210233611517
Fe        7.22589373292102    2.75603958918305    9.07737660979955
Br        8.75199999524169    4.33698741964148    9.98219460197355

