33
CSD_code = CEVBIQ | q = 0 | S = 0 | Stoichiometry = C11H14BrFeN2O3P | MND = 6
C        -0.29200972046373    4.50695226209896    2.73174219312343
H         0.26188999160113    4.97221326707703    3.53486208471765
C        -1.32525482363835    5.16787970843202    2.10636718934180
H        -1.60524673178387    6.15938105597956    2.42121334488103
C        -1.99724940227744    4.52451750680362    1.06944605960763
H        -2.82113258237373    5.00765250578485    0.56755248634376
C        -1.58855315273723    3.26810695594659    0.68831503690926
H        -2.07003932415546    2.73467579600690   -0.11532314480973
C        -0.52162051173322    2.67049779110948    1.37114077824958
C         1.09177064874862    0.93905867360631    1.73301193427866
C         2.77140125324452    2.72545848858987    2.24607563313146
C         2.74281643556398    0.84403835175471    3.68377359729735
C         0.49837876884598    3.83701186160436    6.19587475127197
H         0.90033934675464    4.34011230731041    7.07600144422306
H        -0.08187896112368    2.96553883578670    6.49971684615928
H        -0.16018312973832    4.51599053324937    5.65810270759645
C         2.93691572548737    4.76181547188392    5.03934741638573
H         3.09928481480616    5.18643842993728    6.02994539008317
H         2.47255068333446    5.50807472451515    4.39649776197902
H         3.89506505619481    4.48370107794334    4.60161015712943
C         2.80718149592263    2.30587608433614    6.40716612654150
H         3.78207256560222    2.01790250045981    6.01475820945695
H         2.24234958738403    1.40433805044990    6.64761180148759
H         2.93839960089417    2.90360018236655    7.30991832308999
Br       -0.13743466420357    0.91055249683458    4.38461306987513
Fe        1.54153867181917    2.04501230740251    3.25947618386546
N         0.10017193779722    3.28008482849140    2.39499306686846
N        -0.01953290654814    1.45655080076973    1.04237788746067
O         1.58862400507466   -0.08605982334887    1.34568078102662
O         3.60786573581016    3.09668662311454    1.55502916759918
O         3.55084665188451    0.06019010036764    3.85868466690201
P         1.88555674300069    3.25766289262412    5.14233407657112
H        -0.40638380899460    0.92588735070986    0.26968297135547

