49
CSD_code = CEVDUE | q = 0 | S = 0 | Stoichiometry = C7H29B8IrOP2S | MND = 7
Ir        2.30822595343124    5.66390359605131   19.40125479043575
P         4.67760170159746    5.36738786450734   20.15113168764024
P         2.85670442863381    7.50063267628875   17.96921538322812
C         1.45676689415880    6.89518908621054   20.50956808976098
O         0.93610642243259    7.67891615168031   21.18556169062191
C         5.12933840600690    3.69637166074624   20.77804442603752
H         6.07188993609867    3.72666271778516   21.32391885635319
H         5.21817750379851    3.00688122616842   19.94149471433026
H         4.34014078584614    3.34254753876818   21.43812748586889
C         4.99032449724572    6.33398352141188   21.69160605079427
H         4.24679703843819    6.04733372184370   22.43220923952693
H         4.87633731075157    7.39738264708401   21.49282828528434
H         5.98879706255685    6.14521456059716   22.08422461361360
C         6.23861744312094    5.75760973540794   19.24103784123709
H         6.27551736217596    6.81910579708953   19.00458433892627
H         6.26162276644992    5.19046801665718   18.31293601145380
H         7.10942680359224    5.49754410286779   19.84113887264157
C         4.04953727825226    7.41144792116026   16.56898626148899
H         3.70720778211790    6.67293262468355   15.84974710698891
H         5.02385201174199    7.10194713100812   16.93912673443872
H         4.14172363782708    8.38137236063603   16.08109932494190
C         3.59687893641321    8.93930015309971   18.86218000382632
H         4.55167873110110    8.65253894000145   19.29925742337435
H         2.93079615416299    9.24705687024083   19.66572984833693
H         3.75443957110824    9.78033124094219   18.18746384287671
C         1.45525626465665    8.37032978319988   17.16249532143831
H         1.80122133709696    9.23960466907519   16.60367840139522
H         0.75246260059050    8.68825805835036   17.93045023602375
H         0.94403966555257    7.68289609115965   16.49369184010859
S         0.76899762169988    1.68166766808315   19.25264930407628
B         0.25433553061279    3.64420846494323   16.91452371143852
B         0.59760495911997    1.97135031198145   17.35694713037581
B         1.88688447283661    2.93887401564711   16.66040757345553
H         2.31150135893642    2.64614437244789   15.59995350764906
B         1.68143329348087    4.64066166477217   17.12312803954452
B        -0.34159337516464    3.07978553228874   18.52731899835632
B         2.31542489545877    2.04261396130017   18.14982423510895
H         3.04280347953674    1.11525264021111   18.15714836806703
B         2.97622401886833    3.81013874838410   17.83100325428333
H         2.88485810085963    3.04131443928392   18.85933921281591
B         0.36318056144073    4.89065158146907   18.26609391276687
H         1.95276406373348    4.59064424978404   20.45478933880089
H        -0.50750333541218    3.85952025019933   16.04103865197805
H         0.12624004544863    1.04451247218687   16.80695143760767
H         1.87002417732525    5.47632533776304   16.30118182394909
H        -1.48041217999768    2.86931130026239   18.74144398760304
H         4.12308074469920    3.87155265539027   17.53176273077497
H        -0.44203038737991    5.75060326599622   18.20720581251770
H         0.00599566693904    4.12561660288281   19.25310024583991

