22
CSD_code = CEVFEO | q = 0 | S = 0 | Stoichiometry = C10H7F2MnO2 | MND = 9
Mn        0.99116649301953    2.36950723304463    2.39163546467562
C         0.14013320186094    3.90690099790304    2.64378480290827
C         2.52438203515987    3.23721941204198    2.63419856376569
C         0.43079307939923    2.93951952694174    0.36807120768502
C         1.62151096599071    2.20923754261591    0.46211505522214
C         2.49763736580668    1.60064149381430   -0.29390447051237
C        -0.22271236584988    1.46733285681860    3.97059402988864
C         1.14949187121422    1.19059797355329    4.20834947701253
C         1.63035255577415    0.42281807488586    3.11918944373281
C         0.55494979473774    0.21257916120293    2.22655385273316
C        -0.58282011474404    0.86663526884199    2.74029744846641
O        -0.43357265803955    4.88935486774073    2.80310608238465
O         3.52359106725617    3.78010322490971    2.79204923110034
F         3.56170827518593    0.90949597778085    0.12429964667683
F         2.46007886869069    1.57474856060628   -1.63647582876264
H         0.48928269754754    3.98006294732794    0.04218749955283
H        -0.47687779702253    2.42792668035567    0.04812568272649
H         1.68254581571909    1.39009252490902    5.12896110102274
H        -1.58780017221660    0.79126419695439    2.34943559728415
H        -0.90585879687734    1.91676128112246    4.67904161722406
H         2.59772121477881   -0.05455317397045    3.06042554463352
H         0.57479660260876   -0.43234662940090    1.35865895057913

