47
CSD_code = CEVGAL | q = 0 | S = 0 | Stoichiometry = C18H22Cl2N2NiO2 | MND = 6
Ni       -1.04002522594467    1.27824956066893    3.10326683727102
Cl        0.36524509313095   -0.43378986760120    2.79099520397965
Cl       -2.54201817658386    2.91296144494175    3.28138260216364
C        -1.26883813420038    1.86665955278594    0.46754630990477
O        -0.33442157623462    2.09403261756603    1.51760598222001
C         0.31754242089299    3.30754199473431    1.55293281501982
C         0.11346288497110    4.27523420849747    0.57352764722501
C         0.82208169024136    5.46430985531949    0.58131722079230
C         1.75086860246292    5.71159188146000    1.57073908461215
C         1.94037101777948    4.76529848109436    2.56170067656922
C         1.24698567793637    3.56437882610145    2.58219392791745
C         1.47435146521368    2.63344463959468    3.75320036469605
N         0.21804949101179    2.50868954510135    4.48838763587885
C         0.15952663421973    1.63097533128397    5.64994388089855
C        -1.29576444288821    1.14255724105047    5.80082543635502
N        -1.66646076928332    0.37413221598447    4.61079905691806
C        -3.07902631766432   -0.02915911526602    4.50799611578076
C        -3.24626743633908   -1.14076472175684    3.49800229374789
C        -3.69284437954957   -2.38352526583842    3.91926422225143
C        -3.82336371873329   -3.44534066009140    3.04075525645018
C        -3.48776536091203   -3.27170888105831    1.71213854171320
C        -3.03948212404204   -2.04242484551644    1.26166983416894
C        -2.92392618713925   -0.97044468431859    2.13796157347174
O        -2.51597978323530    0.27388372378303    1.74558009127811
C        -1.81490406176980    0.43406250681164    0.52410022732921
H        -0.12254191372460    3.43548014559765    4.73691042011549
H        -1.10171507842202   -0.48415762820239    4.60810159258212
H        -2.10951568154600    2.56644312646449    0.56614888170688
H        -0.77069228139956    1.99619732092784   -0.50187254155973
H        -0.61401766959744    4.12614901778319   -0.20639386712566
H         0.63591032563060    6.19383803699457   -0.19201522862723
H         2.31042237087913    6.63376956735638    1.58450767474200
H         2.65120512869627    4.96264440263955    3.35119321048958
H         2.28885944798319    3.03359099698056    4.37805643040483
H         1.76749816721025    1.63723446797701    3.40315392111958
H         0.81166970064062    0.77126107285098    5.46766233353741
H         0.48051137687344    2.12357561224658    6.57925771414097
H        -1.39706383891408    0.52857042435759    6.70604738911025
H        -1.96173475199859    2.00689691443176    5.87648202831167
H        -3.42797070704942   -0.38414600906883    5.48722240410442
H        -3.66878269615969    0.84869325676271    4.22260161541915
H        -3.94044625237916   -2.52393879568997    4.96186617865473
H        -4.17309810992653   -4.40193282853370    3.39655139608454
H        -3.57138594752739   -4.09309108179061    1.01679888886957
H        -2.77906276857377   -1.92503518908275    0.22192636951868
H        -0.98650659457693   -0.28469471005349    0.46951729387263
H        -2.48793950945890    0.29710629371871   -0.33285694408469

