89
CSD_code = CEVLOF | q = 0 | S = 0 | Stoichiometry = C36H48ClN3Pd | MND = 4
Pd        4.50479155308917    2.64020500612693    1.77556088635676
Cl        3.50487036241685    4.68931515438332    1.20282489198079
C         5.16429949548203    3.39224464277672    3.46469730410914
N         4.37556426136067    3.98950576810694    4.38305469267498
N         6.42555985209044    3.47539362436480    3.94923566676954
C         5.09605600863702    0.75543884103675    2.15362517640181
C         7.61362949359461    3.02862718848711    3.30690422744691
C         5.13728045659840    4.43985398474326    5.43480399263683
H         4.70443798249929    4.93275743639001    6.28042544615206
C         6.41960461898237    4.12064152015647    5.16363481109406
H         7.31620094322252    4.32295868406638    5.70969526903167
N         3.72015958844236    1.75746754543576    0.00265266330753
C         8.45230727529988    2.11053872001824    3.95482303105458
C         2.98961101849221    4.31695712886399    4.27072503332950
C         2.01553973763364    3.30866633303525    4.29485423763707
C         7.96068031939383    3.56854852007872    2.06146551983566
C         9.61631440425985    1.71190694892034    3.31134456355086
H        10.27362732633834    1.00607484514590    3.79339950828647
C         9.13120497205884    3.12885227616214    1.45435365757534
H         9.41131727191825    3.52879710775337    0.49243987935683
C         9.94980217797777    2.20216672170502    2.06517210966147
H        10.85551532507248    1.87229331813832    1.57827848227443
C         5.39331259390068    0.13451636115593    3.36409315520310
H         5.50853070245167    0.72607410272780    4.26396229610650
C         4.53041054255492    0.56112478663970   -0.26217010694144
H         5.43604353351562    0.86831598923255   -0.80271213312110
H         3.97912996429265   -0.14378203770952   -0.90734137339192
C         4.92441919193939   -0.08286606529031    1.04181337770734
C         5.53709400597526   -1.24208442231095    3.46414650129421
H         5.74545725903541   -1.69433862460199    4.42470108544375
C         2.41343577021766    1.85183797765122    4.41082258397037
H         3.23128817972572    1.67006982383629    3.69138792994761
C         3.57656432267924    2.54778216156557   -1.21653098484027
H         3.03655153955197    1.98001521260685   -1.98786275564995
H         4.55644879467377    2.82432093427529   -1.60656322229102
H         3.02586293356236    3.46212993407927   -0.99408150720971
C         7.15764816747942    4.64785644333103    1.37140063963352
H         6.25084348058136    4.87517046234943    1.94332650224483
C         9.13812138905208    2.16474202397512    6.35489242068054
H         9.08174998966040    3.25092892486561    6.36412401572784
H        10.16241250106829    1.88820980880229    6.11674993070602
H         8.90584777625061    1.79951917000487    7.35290569794407
C         8.17070928511352    1.55519636731106    5.33365398462185
H         7.14903601937371    1.81250418036841    5.62724890371360
C         2.63978584385442    5.67103657387570    4.19689307845132
C         5.39876197899760   -2.04206920873209    2.34552591906436
H         5.51418536487254   -3.11392984156242    2.41962770189934
C         6.70456818444945    4.16310229973509   -0.00923118922122
H         6.21894731615025    3.18030388629253    0.10878805262876
H         7.54314931369563    4.06437151313840   -0.69576534073102
H         5.98747912704869    4.86938047057927   -0.42379251506752
C         0.68103841586644    3.68735049866114    4.24910135537923
H        -0.09217441241435    2.93740158176747    4.27176479546860
C         3.65543406115499    6.79133244680583    4.15425920275416
H         4.66343435004220    6.37238278495753    4.09319842730402
C         3.56412917138686    7.64466177115553    5.42334777941080
H         3.70421422321467    7.04185676040987    6.31882646859433
H         2.59209297500162    8.12674939007547    5.49151388093733
H         4.32932182435724    8.41778500984509    5.40694346467767
C         8.29621690376033    0.02920526679618    5.36121689557242
H         7.78394003232743   -0.40933395279252    4.50997078657219
H         7.85585400022760   -0.36111744719227    6.27632792763585
H         9.33753456339626   -0.28067226077997    5.33378490741728
C         0.31944007682107    5.01877667123140    4.17655802345312
H        -0.72504146204824    5.29141111485367    4.13813234045499
C         1.29050387194972    5.99693182930911    4.14956309010063
H         0.99749927902130    7.03273316188704    4.08420218961902
C         5.08800350613619   -1.45666948194606    1.13127525759254
H         4.95613891357840   -2.07231998875706    0.25070322480818
C         2.38626175840066    1.36807921839844    0.46624965284982
H         1.81520452576460    0.88685750762641   -0.34314741095574
H         1.84401782509037    2.26064541714613    0.79646197756175
H         2.47074869687583    0.66253409793050    1.29770107493012
C         1.29190130287226    0.87063698182999    4.06992084364122
H         0.83070941787739    1.11941606389998    3.11733690897494
H         0.52556454826038    0.86132949032285    4.84274348005055
H         1.70642944171310   -0.13351612308391    3.99812710951392
C         2.92080030135647    1.55569719480619    5.82702291831815
H         3.77494488420031    2.17565151594252    6.08788439912948
H         3.22024883925444    0.51253435234153    5.90170538320481
H         2.13067614582913    1.74169592549281    6.55307136823129
C         3.46017544818634    7.66136168387874    2.91062625447419
H         3.45562157872938    7.03137327288005    2.02503909515213
H         4.27479148550364    8.37841800075060    2.83107730311311
H         2.52375189764208    8.21079895602014    2.95209008700684
C         7.97246267876016    5.93924792427592    1.26883773544502
H         7.36537434501003    6.71750966493394    0.81306755583633
H         8.86430804518308    5.79757927320479    0.66284899303167
H         8.28075702314320    6.27613390103745    2.25696155370749

