72
CSD_code = CEVLEW | q = 0 | S = 0 | Stoichiometry = C35H31Cl2N2PPd | MND = 4
Pd        3.22037939786272   10.37169755837522    1.08337550365531
Cl        5.20859011736469   11.45876300932892    1.53870799884496
Cl        2.23330159042467   12.30352481033185    0.47731350413395
P         1.20611656358800    9.53900405447475    1.56787102707330
N         4.12102797381755    8.59030590298723    1.47619519646155
N         5.12665639229760    8.31156645916937    0.67292069309770
C         3.90878459437311    7.90165914685892    2.55272390786707
H         4.67293659874432    7.20569690239821    2.89408218301572
C         2.68232657376254    7.83229209299762    3.31428196606267
C         1.42649957431347    8.32895141260016    2.91507270925957
C         0.29137825001817    8.02188661800354    3.66220970423114
H        -0.66448834962269    8.40765449772295    3.33251851357133
C         0.36536633537688    7.25292523243700    4.80579917287389
H        -0.52705985728100    7.02811504300931    5.36956531322071
C         1.60327907366798    6.78957509946803    5.23013604014757
H         1.68294407005040    6.20566647598971    6.13484384858192
C         2.73143905802246    7.06546241164948    4.49083143986670
H         3.68890225214591    6.68610256257424    4.81949356897068
C         5.95354807989053    7.12857322237852    0.76551967112233
H         5.34967594326314    6.28646997390831    1.13571279229159
C         6.36741637221691    6.87442255718165   -0.69249186205082
H         7.33035867609729    6.37111153605777   -0.75378676186562
H         5.62033229588725    6.25428403866865   -1.18957566562141
C         6.40217373367705    8.26854042397401   -1.31238142576257
H         6.20745540918966    8.24925064646043   -2.38309105968239
H         7.37650908183818    8.72575241499085   -1.14244536314528
C         5.32441205079500    9.06344071449258   -0.56058154410531
H         5.70343611960139   10.06624987485094   -0.31385165061618
C         7.14636429344086    7.32311634199180    1.67927429217620
C         7.51056583816737    8.58082972632171    2.14005635328080
H         6.92990278381765    9.45514787775268    1.88167947680633
C         8.62102353534862    8.72153643694341    2.95576198890225
H         8.89484716231449    9.70359286733111    3.30982713551387
C         9.37253491210421    7.61650957092142    3.31424092850015
H        10.23897839744323    7.73076886200316    3.94849315083044
C         9.00742417489343    6.35950555418356    2.86089259417832
H         9.58543462055453    5.49122937120124    3.14152088244503
C         7.89795859013766    6.21394850918103    2.04903159974459
H         7.60945184165394    5.23222001947290    1.69819057433019
C         4.01504365245223    9.21862285227974   -1.31551208954042
C         3.13812073818795    8.14600736340823   -1.48107109529368
H         3.37285204601434    7.18124119356629   -1.05096296321098
C         1.96742229944791    8.30301767594556   -2.20422663422869
H         1.29589066774484    7.46537529640835   -2.32638041367506
C         1.65428689161303    9.52968636226379   -2.76365892155720
H         0.73980807964580    9.64670748056301   -3.32520432972351
C         2.51129948609924   10.60533885762665   -2.59728084676648
H         2.26445252033238   11.56680443760780   -3.02078254343899
C         3.68674896533831   10.45621729793310   -1.87800929513291
H         4.36635692745213   11.29471327135465   -1.77038541794498
C         0.40908168881204   10.83267684981874    2.57356947784873
C        -0.94143316613316   11.14818841234692    2.54869881590857
H        -1.60978009148144   10.63276092703164    1.87238739584628
C        -1.42781007979574   12.14222253844170    3.38245344401973
H        -2.47751972135752   12.39624213957067    3.35376165981774
C        -0.57556406977157   12.81172412630762    4.24213203964158
H        -0.95957185829937   13.59161049526096    4.88292687496841
C         0.77377035872618   12.49010678466262    4.27652626475805
H         1.43914279939697   13.01838742185607    4.94297612002687
C         1.26679525594505   11.50404391778527    3.44656040311953
H         2.33541063186550   11.25872121746116    3.45081330452247
C        -0.07923030920389    8.90347205383620    0.46928996390159
C        -0.46239883688760    7.56825879557966    0.43043981111703
H        -0.02670307366165    6.86163962097357    1.12376441793921
C        -1.40590195846733    7.15415873876065   -0.49365160266157
H        -1.71063267267821    6.11787630790944   -0.52201911354733
C        -1.95903499625619    8.06319986240858   -1.38067295011574
H        -2.69774990854666    7.73415529588961   -2.09670589379763
C        -1.55975672923266    9.39151820505849   -1.35785948454794
H        -1.98535314693255   10.09601436866189   -2.05722295607134
C        -0.61308929355310    9.81180566286638   -0.44413764947505
H        -0.26593721796143   10.83743433800108   -0.42539419092099

