39
CSD_code = CEVMUO | q = 0 | S = 0 | Stoichiometry = C16H18Cl2N2Zn | MND = 4
Zn       -0.15032385074920    4.44298622293292   10.54932784940325
Cl        0.01145382092267    4.57321225046212   12.72281377570116
Cl       -1.61944624032287    5.26819083308968    9.10627751617396
N        -0.27519383531756    2.41201200081673    9.90059373737619
N         1.52329830894234    4.32770984678503    9.19292399910486
C        -1.12577383316252    1.46952810419640   10.26292854553278
H        -1.63377053271508    1.62584075553246   11.20451031277189
C        -1.36237875196013    0.33947711201295    9.49191167476881
H        -2.06837540617769   -0.40482685528103    9.82296196340834
C        -0.67975273414406    0.19847156625604    8.29326199039568
H        -0.84361730292208   -0.66291377582199    7.66344516876470
C         0.21581319444225    1.18404833633315    7.91606188037165
H         0.76642470341078    1.11241807407593    6.99073706596233
C         0.39514050405588    2.28725433343749    8.75046946961865
C         1.31871761218937    3.35140554966904    8.40181221484462
H         1.84624475440558    3.25216652163187    7.45313560216472
C         2.34932173496887    5.39859252586701    8.86498022871618
C         2.17120849309991    6.13710388922019    7.68500949883554
C         2.98621372386454    7.24431209849568    7.48016068904572
H         2.84024429441789    7.83872763309825    6.59038733895197
C         3.96242970845280    7.59592675066830    8.38939359520646
H         4.59087848271120    8.45380841726218    8.20295029589149
C         4.12987826681745    6.85735957296590    9.54997372887699
H         4.89158793226023    7.14895939195489   10.25366462227893
C         3.32426468052511    5.76468166787401    9.81532944166038
C         1.09678294595296    5.84778463918761    6.67358972735465
H         0.59647811353657    6.78812687345195    6.43178706848420
H         0.33785533319585    5.17968383667949    7.08296339705430
C         1.67244048660181    5.26209128522503    5.38212063611330
H         2.37639413509472    5.95686881950399    4.92978880496660
H         0.87234411500887    5.06966434104564    4.67165199039115
H         2.20090355122408    4.32828378328702    5.56719935955624
C         3.47216130779122    4.91858741367978   11.04911737960720
H         3.70685314351301    3.89358848272374   10.74381217854142
H         2.50036883540741    4.87983525438221   11.55293704299002
C         4.51904925494285    5.39165142819573   12.04843064170459
H         5.51657624794936    5.37733145921388   11.61369357562700
H         4.51459123192357    4.72967670129737   12.91077455430782
H         4.29511356983931    6.39697285859001   12.39571143747408

