36
CSD_code = CEVMOI | q = 0 | S = 0 | Stoichiometry = C15H16Cl2N2Zn | MND = 4
Zn       12.19221903697939    1.86151927608276   17.63475180323142
Cl       10.65588945365079    0.32276568402669   17.96943825408121
Cl       14.40088855693837    1.79444945235757   17.54845207637501
N        11.73414845827451    3.04761825015373   15.92785582322097
N        11.69872380406577    3.73586405802159   18.55555760775651
C        11.98921867611531    1.32965485082205   14.30526630337251
H        12.08489517556758    0.61529187975438   15.11121792589313
C        12.05836949355498    0.94892505056541   12.99471540414416
H        12.21304239849406   -0.08840334761709   12.74045023477722
C        11.93047902859831    1.89701599360314   11.96388289795935
H        11.98954715020786    1.57032782422570   10.93663781129455
C        11.73466099050415    3.21909294980858   12.25350365055111
H        11.63659188823502    3.95204382697980   11.46617568837308
C        11.66102465819676    3.65000681710195   13.59281716351191
C        11.79208943451866    2.68592147604322   14.63626156087649
C        11.46726267657378    4.99477303342850   13.96551317960095
H        11.36391701605165    5.74816757519682   13.19789488435505
C        11.41579139931421    5.32735889594256   15.29177780759744
H        11.27251659173783    6.34839148146730   15.61001275886389
C        11.55937349741265    4.31133697160637   16.25962228763239
C        11.52490679257653    4.63056821062929   17.67925118340720
H        11.34827783995004    5.67664560763416   17.94618031923619
C        11.67181624102180    4.02992168203281   19.95257598283434
H        11.51558789800262    5.10786722276554   20.10800121171247
C        12.99072314410306    3.55681734316069   20.60069802940480
H        13.79480345214591    3.49377351265878   19.86901878917062
H        13.27884542237528    4.26737315201055   21.37650824634467
C        12.65507527680545    2.20333247645467   21.21762080310499
H        12.64650140441706    1.43383446472114   20.44076079832642
H        13.36768839916996    1.91163798394497   21.98663724887166
C        11.24417161522991    2.41385463210021   21.75140194640322
H        11.27565662028530    3.01422725343592   22.66296778493260
H        10.73138903668700    1.47918696447448   21.96682513585838
C        10.55963620057295    3.18926353397095   20.62574176313296
H         9.74659286116865    3.82082596293917   20.98025732834941
H        10.15627841050842    2.48804799752790   19.89404830542924

