60
CSD_code = CEVQOJ | q = 0 | S = 0 | Stoichiometry = C18H37Cl2P2V | MND = 9
V         0.40065426892532    3.64595384385823   12.11187509862885
Cl        0.94792310336943    2.91872228083477   10.01737461848322
Cl       -1.53629674602033    2.71817490675949   12.86356113351332
P         0.96056459595349    1.33308620281386   12.54154662445683
P        -1.29740044757158    4.68664551911750   10.75272168421252
C         0.63362019447879    5.65796708379566   12.93824573750111
H        -0.02386548699304    6.51488832718542   12.92829001157548
C         1.62606615372376    5.36821361785082   11.96557589814047
H         1.85849256200716    5.96126717957351   11.09289320373883
C         2.40398124884721    4.31177343958409   12.45443555557548
H         3.31078277109982    3.94038834512940   11.99772092912347
C         1.89453682116600    3.94993667153949   13.72350206468955
H         2.36518851834418    3.26648164296226   14.41395104811973
C         0.81368234312063    4.79452747293824   14.03018759569044
C         0.02125934574620    4.79626244076164   15.30028942430227
H        -0.78163592599658    4.05582362446800   15.26258432301548
H        -0.42869927701292    5.77494829639833   15.46765912272670
H         0.66180064927190    4.56047758685535   16.15127745716504
C         2.76194186427069    0.96319012075994   12.28036513585721
H         2.92206531299783    1.12374532960524   11.20867151392931
H         3.32817485495757    1.72894227971835   12.81463984599813
C         3.28686342040918   -0.40716290057587   12.69482479843123
H         3.21864922948120   -0.54989546047104   13.77071416323747
H         4.33599288650758   -0.48812942660582   12.41325744463624
H         2.75286291280591   -1.21879445543443   12.20609031461336
C         0.23498246896527    0.06124176647124   11.39335133819620
H         0.22254832978428    0.51715414387116   10.40018698388402
H         0.94390146660325   -0.77108887590393   11.36157854000260
C        -1.14856867505436   -0.47638447056053   11.74486021852357
H        -1.10632948960586   -1.14866192152765   12.59839233634021
H        -1.54552676906275   -1.03431896432645   10.89808801330217
H        -1.83962765627343    0.33015771692373   11.97502216712612
C         0.56209568508556    0.47989807842276   14.13904015281197
H        -0.52398001775241    0.53623478765841   14.24249326728546
H         0.84389438833653   -0.56912438953345   14.00298228571616
C         1.21174496458458    1.03769070941888   15.39618946861914
H         2.29645347204633    1.07418279628042   15.30547347168656
H         0.96805519770519    0.40247609812648   16.24756960880390
H         0.83671353214604    2.03579197168910   15.60611648370036
C        -2.89307498332353    5.28231958817069   11.49065893172191
H        -3.42118723256942    5.85198879665136   10.72028830162758
H        -3.47211318025028    4.38071554028756   11.70665776407417
C        -2.76320630541791    6.10556925407073   12.76134697503467
H        -2.23069067704683    5.53447021050332   13.51905445225639
H        -3.75118352721533    6.34942734592763   13.15015198618249
H        -2.23713396009041    7.04031736478776   12.57373699580857
C        -2.03274782978310    3.72345840477464    9.35302183560776
H        -2.88262637771254    4.30618657408158    8.98262335725637
H        -1.26597223480773    3.66678673454920    8.57582888130900
C        -2.49063086708371    2.31982025962465    9.71439960359809
H        -1.63783826923249    1.73207409060954   10.04456212578682
H        -2.93113307375287    1.83515868670104    8.84430461056778
H        -3.23028756926570    2.33584069398718   10.51236062368103
C        -0.68188271807227    6.15411293873735    9.79963528893935
H        -0.39780791239617    6.91138255562930   10.53586203089756
H         0.23118628237942    5.80217140440426    9.30836145436755
C        -1.60297932817994    6.78385445112131    8.76086801461876
H        -1.82501105070729    6.09183681891968    7.95334547670900
H        -1.11038132983733    7.65367036462391    8.32788300368909
H        -2.53855992707386    7.12055450530825    9.20204920287185

