33
CSD_code = CEVTED | q = 0 | S = 0 | Stoichiometry = C12H15BrIN3Pd | MND = 4
I         0.55831819053710    3.47134523636698    8.60539236227573
Pd        3.09624877499866    3.64767010896547    8.91950321315894
Br        2.91138262048154    5.17155199577503   10.76035172465751
N         5.15382665531784    3.63822679560736    9.11710173362299
N         4.40840188621408    2.87516841428443    6.43128717451869
N         3.47689123377985    1.16280353657554    5.49968964025918
C         5.68943581187373    3.40823959330743   10.31601904724602
H         5.00229190298065    3.33427269590433   11.15250759488890
C         7.05495436430558    3.28967201693340   10.50563854973898
H         7.44371236692525    3.11011321847985   11.49460985926466
C         7.89969506813136    3.41447944858451    9.41386760815581
H         8.96961459505145    3.33494676823298    9.52585138089148
C         7.33790201686153    3.64426974173689    8.16608707972447
H         7.95941918157766    3.74938813029306    7.29001493959970
C         5.96217513793439    3.75245634059385    8.05603318647918
C         5.28261081397600    3.98862296392533    6.72537576013558
H         4.66374944278301    4.90196440868984    6.80203457721849
H         6.01286518673442    4.11098760230853    5.92331997878997
C         3.39266891264684    2.50179536049884    7.28429937894183
C         2.81643269837189    1.41953160027847    6.67004834448223
H         1.97825204495415    0.83081091826351    6.98555231069709
C         4.44534811451414    2.06575197880295    5.36987969379579
H         5.13371714744113    2.14389041334135    4.55367131067969
C         3.08213969849183    0.14600416532387    4.54117139752662
H         2.57960668197783   -0.63720782657506    5.11949250105839
C         2.08688177787520    0.75185067095277    3.55206258231263
H         2.56124009993585    1.53522821841733    2.96481054467428
H         1.23849128603167    1.17946772351943    4.08106322849197
H         1.72279891105161   -0.01670953053503    2.87674550569527
C         4.29350214976877   -0.45087145144534    3.83346888189948
H         5.04409420619318   -0.76930789233646    4.55368737131613
H         4.74048777962203    0.26396346990605    3.14686395231055
H         3.98234324065810   -1.31817683497306    3.25829758549753

