62
CSD_code = CEVVII | q = 0 | S = 0 | Stoichiometry = C30H25O4P2V | MND = 7
V        16.32058461004212    8.54756901331668   25.35878363520492
C        15.29588361343738    6.40414159207345   28.20791506373558
P        18.45219728790924    7.74124457615239   25.19184440965615
C        14.32073992206777    5.81983998872822   27.40946167672283
P        16.47299842479977    7.58348012728659   27.45566898030388
C        13.42031016391310    4.92139812380746   27.95602479390466
O        14.67843388886841   10.90453872674215   24.47153579915632
C        13.48821220527744    4.60806011895337   29.30309591933357
O        15.42034806446379    6.20045522464548   23.76636276773304
C        14.45554967964180    5.19367761465525   30.10555425825149
O        16.33924940962568    9.47182938560256   22.53929456640569
C        15.35672352246586    6.09022694998955   29.56352199119857
O        17.43035799155570   11.05657288775319   26.51543402352821
H        19.40209137382631    8.28847641863187   27.30863331681711
C        15.22377535506884    9.88064926929562   24.74143527676803
H        20.04816431275231    6.71462046318001   26.79032713984710
C        15.72816401490395    7.03575841923201   24.49590492931746
H        17.83408552714502    5.64225666120386   27.25330646066838
C        16.29627283384058    9.18514065744818   23.67725955027995
H        18.30758692192487    6.51763429794172   28.72651023258517
C        17.03472550470512   10.04966913776693   26.11852181461050
H        18.15668398596948    7.39883724421368   22.48272259072546
C        19.13961150418739    7.32207129573602   26.86050477588895
H        18.34946681464637    5.49705494023505   20.90760221910231
C        18.04558081574794    6.63534614221894   27.66869728521209
H        18.99009066060552    3.26601373840752   21.75074807871577
C        18.71102027723004    6.23942067849116   24.19351497545997
H        19.44564444990970    2.94119686452582   24.14939569397290
C        18.44897603944986    6.41517453047210   22.83415728631400
H        19.27196950437300    4.81614668868174   25.71081294020133
C        18.55355064831424    5.35366763048373   21.95821820230346
H        18.56030814044593   10.43173299119506   24.08452416454780
C        18.91319130069781    4.10045275392509   22.43188787486761
H        20.40672999624778   11.79543636869450   23.17288591343065
C        19.16846039531999    3.91806000170154   23.77946092028875
H        22.69085354280155   10.87051953662386   23.06972878821524
C        19.06754760935569    4.98120326772780   24.66220631442342
H        23.12940879651162    8.57689437273550   23.86037842392837
C        19.81271498233209    8.74828770729530   24.51126137025602
H        21.28928611982925    7.20874478469883   24.76070211251997
C        19.56709768561592   10.03478391602317   24.04849152962577
H        14.45032173772737    9.27139902075543   28.30804715101799
C        20.60234338472792   10.79604944162192   23.53203908525356
H        14.28198277461727   11.12466801531845   29.93586872571158
C        21.88405945415739   10.27593575533371   23.47210543126650
H        16.24628013396244   11.74786739762991   31.29536777457304
C        22.13152754425713    8.98685651381524   23.91857062118570
H        18.36527056066409   10.51884968674810   31.03259387642638
C        21.10128310930869    8.22244816770655   24.43207948681151
H        18.54224733827130    8.67866531863645   29.42941014103672
C        16.49859241146257    8.84093082460547   28.77101076343082
H        14.27187304666496    6.07618681701382   26.35682189132044
C        15.30479999761361    9.54711169457577   28.91970344008205
H        12.66340548496605    4.46882220536964   27.33249630552676
C        15.20980839353705   10.58260273405991   29.82708021748634
H        12.78392499447711    3.91049724791263   29.73153062458229
C        16.31340377155941   10.93256537690281   30.59070988604181
H        14.50305482924702    4.95220217645107   31.15745186956478
C        17.50337550039189   10.24207017436933   30.44265858683114
H        16.10364156464894    6.55948165710038   30.19018131454679
C        17.60131111545497    9.20012322251312   29.53538850901059
H        14.75434495443585    9.08388144299935   25.52858623230794

