55
CSD_code = CEVXEJ | q = 0 | S = 0 | Stoichiometry = C18H10F18O6S2Ti | MND = 12
Ti        6.39638700124845    6.45344762545143    6.28603930088475
C         8.04646743611677    6.61146259561280    7.99560901737162
H         8.02726071540401    6.12703279814473    8.96067937197323
C         7.52069013137193    7.88769801212937    7.68766473132605
H         7.08746469129323    8.56929910000269    8.40982699616892
C         7.93516842020877    8.21570859789866    6.36431426142443
H         7.84691334174251    9.18649927836163    5.89178839983449
C         8.69968656753365    7.14054208481372    5.87350651344186
H         9.21915002710358    7.11382528381256    4.92405094129184
C         8.76650248105762    6.15250845154015    6.87740269623568
H         9.33428470584743    5.23603605528811    6.84294278726361
C         4.00905025121315    6.45096930495167    6.25530125662400
H         3.39134192290699    5.60403894861189    6.51876138170249
C         4.41388091968579    6.80393726109127    4.95698986604694
H         4.13228411774282    6.30246101960947    4.04459316796660
C         5.10762989326259    8.03583661857248    5.02590633465600
H         5.43794063044073    8.61426837602055    4.17249900059564
C         5.09330120946007    8.46231581764485    6.36664667055119
H         5.38084234241815    9.44245413239879    6.72296405561417
C         4.46849909820074    7.45374323056089    7.14395148703039
H         4.19735706068768    7.54136876642705    8.18956664360211
O         6.04266390093175    4.87205278858737    6.94337736679906
S         6.48560248907994    3.64874714868049    7.68701247515647
O         7.73785925104106    3.74020641954401    8.34417983566033
O         5.95280603469342    2.43384340262118    7.20357810424156
C         5.28116868162194    4.16728277826044    9.12318687361565
F         5.54258252952609    5.51251590141307    9.26578291497038
F         4.02101200845101    4.10326606626337    8.64578532714162
C         5.40993240273339    3.49399115292177   10.48893441214795
F         6.52013512399789    3.95939708772378   11.09370253433230
F         5.57685484938730    2.16956863959440   10.32748445964692
C         4.18775886584436    3.71629867833801   11.43791540282331
F         3.76624336493451    4.99284254491592   11.35511402999291
F         3.16826142714826    2.93651642135574   11.04937468609696
C         4.51472962861787    3.41338906919211   12.93254826159052
F         5.15994908218553    2.26356275334333   13.07134352120323
F         3.39341394883994    3.34343897699185   13.64226191164181
F         5.26422648477488    4.37981443442916   13.45206852665918
S         7.39746677322718    4.29744177222271    4.47368208124659
O         6.85208753062452    5.67171325785105    4.61198766626895
O         7.78105440678960    3.70751300908591    5.72031748672539
O         8.28751104183435    4.18068850359577    3.37534603808682
C         5.81034241271723    3.38890511048773    3.98290661452502
F         5.91682504028616    2.07384417047137    4.18078601690373
F         4.86494750286085    3.87595380277454    4.82860357134088
C         5.40661312348143    3.68776706682566    2.53167896817103
F         6.20925348955112    3.02106815010226    1.69217910881467
F         5.59480660223359    5.00718360408702    2.29998880787632
C         3.91438188377509    3.36829445006897    2.19627011543844
F         3.53483617393383    2.21036818926415    2.75100639894845
F         3.14151288213608    4.33805040384245    2.72179497600462
C         3.64012856868563    3.29819895570184    0.66109295495348
F         4.15760169345851    4.34897588797186    0.03435463210919
F         2.33246075517424    3.29018212618985    0.43224036124381
F         4.15726708596338    2.19766392582437    0.13550867685219

