81
CSD_code = CEVXAE | q = 0 | S = 0 | Stoichiometry = C34H40N4P2Pt | MND = 4
Pt        6.73594598068680    9.48204321191610    4.33619519681667
P         6.31572421399332   11.59642830612929    3.47489229763887
P         6.95986952092717    7.40164467475323    5.29533805570529
N         8.17105077798320   10.57731813350136    7.08312006523874
N        11.65736437479736   11.43576452845233    4.48967046719751
N        11.80984143725037    7.86600520932340    4.74476235579585
N        11.51758469888158    7.58553597448732    0.45732669543259
C         8.73209687506697    9.62040459314460    3.86766160628315
C         9.40401188831070   10.28584163363551    4.85479172865060
C         8.71639880389142   10.46793595214831    6.07520838246326
C        10.66673033513056   10.89113404639671    4.68945050172106
C         9.36437145222124    9.22962038968824    2.64751946651212
C        10.55704985081723    8.54555897796305    2.62360097129190
C        11.26328915636853    8.20406258532652    3.79293398142554
C        11.08562779255970    8.02161862693793    1.42718926440444
C         8.63744609276317    9.44388407543670    1.38588411919903
C         9.24344062111982   10.12057468793125    0.33072629329844
H        10.24163907452865   10.51708621295434    0.45017535774944
C         8.56347834712458   10.29401518284650   -0.85990069155438
H         9.03703275166052   10.82360096201098   -1.67254121821531
C         7.28624017341582    9.77895847367869   -1.01479019720421
H         6.76486580936760    9.90158006481963   -1.95229061969899
C         6.68119191284612    9.10234515342153    0.03129812807383
H         5.68997481153028    8.69199024342742   -0.09074463665689
C         7.34578123612352    8.94633594989694    1.23467665393365
H         6.88447087388161    8.39005481467074    2.04850664336950
C         4.79956048742015    9.44688357296398    4.84131470115423
C         3.63558433076136    9.42400510288706    5.17701266486282
C         2.27559228492984    9.39857507192174    5.57211953144900
C         1.27742570591304    9.07019308592375    4.65363662570543
H         1.55238154829207    8.83196189210420    3.63528236176731
C        -0.04645407531104    9.05052477489911    5.04699174197053
H        -0.81516386732595    8.79562143668305    4.33114391273050
C        -0.39199402492836    9.35620612727756    6.35383714641363
H        -1.42853171595472    9.34005156611990    6.65725510713217
C         0.59517667102577    9.68251355607384    7.27044213185168
H         0.32704933554751    9.92100960055752    8.28990466018944
C         1.92172042309265    9.70465445603228    6.88717290563343
H         2.69636728879841    9.95891118726469    7.59677550745686
C         5.37244647948345   11.70747567704184    1.89521885637707
H         6.06143115283521   11.46912535948115    1.08026688145482
H         5.03791275196609   12.74155989724944    1.77491068722320
C         4.17786927999933   10.76383390270829    1.86248510786133
H         4.49615265592250    9.74420397297942    2.07175213718727
H         3.70284120697080   10.79069493770330    0.88380585870833
H         3.44155477150515   11.04161641426749    2.61250195645536
C         7.79275604298748   12.65593922774224    3.12749892270122
H         8.43421455698395   12.08870746380995    2.44476133067966
H         8.33637433330899   12.76158423339528    4.07196423485055
C         7.52240326257849   14.03405664260196    2.53805327962092
H         7.05138692413386   13.96023332524621    1.56111989481514
H         6.88979628282094   14.63015092084615    3.19080612651317
H         8.46655459291804   14.56161684973053    2.41671912946148
C         5.27659688804260   12.62446195237474    4.59077193119047
H         4.30082688876628   12.13391156158073    4.63691534298746
H         5.14539417201341   13.61576561619793    4.14788332612178
C         5.86205674836523   12.71823485869970    5.99258095100466
H         6.02741923691676   11.71872586823766    6.39421821685648
H         5.17819927887483   13.24433703064331    6.65490049026246
H         6.81248892346830   13.24820665784555    5.99291388008297
C         6.57989356165084    6.03469927141216    4.11885284463167
H         6.64643815966892    5.07804174855358    4.64291797338144
H         7.35425168568868    6.04998566618459    3.34438728504534
C         5.20026397564856    6.20202840104731    3.49111196733886
H         5.07617846235397    5.52085286549783    2.65177713135457
H         4.41732509477359    5.99844959316742    4.21728744078507
H         5.06324064567264    7.22512373014561    3.13775326110830
C         8.63878629628904    6.96716993014860    5.92199765943392
H         9.30483025559036    6.95022408306572    5.05373060224431
H         8.96644773753006    7.79300586578914    6.56039623482998
C         8.76106030322164    5.65348914085913    6.68397410520000
H         8.42063556647987    4.81080565015218    6.08670526261377
H         8.19667046327562    5.67841614117829    7.61242351991569
H         9.80745876422746    5.48778903022757    6.93113747187867
C         5.83813307387711    7.05696742048923    6.70666983982992
H         4.81729133146515    7.16536395393844    6.33207034256967
H         5.98312184044146    6.02431526956071    7.03598926177304
C         6.06921532106268    8.04749444728675    7.84033525610021
H         5.33123367077035    7.90401982758988    8.62653110369024
H         5.97925379471706    9.06529703639014    7.46243380880705
H         7.06076030920049    7.93476446136216    8.27251921779292

