113
CSD_code = CEVXOT | q = 0 | S = 0 | Stoichiometry = C60H36FeN14S2 | MND = 6
Fe        4.00401195832270    0.00074097123925   -0.00090246581694
S         1.48890297669972   -0.19062129954838    3.69023480538815
N         2.86338356491176   -0.74298061418939    1.35813486520197
N         5.35979530008325    0.30710051043901    1.40011600963660
N         3.32515066919376    1.75965535414667    0.68585752812939
N         2.21078393400174    2.46494176542978    0.58581974192574
N         3.11997227314430    2.91799815916904    2.53071911439645
N         3.38256491186827    3.40119794952987    3.77061638740581
N         0.91275942485342    4.70914564528897    3.10837289654340
C         2.28121307697409   -0.50967686841310    2.35168171300507
C         6.43755359965144   -0.42834522587004    1.65145861420791
H         6.62059481902652   -1.23698785344629    0.95894016996024
C         7.26740107319674   -0.19665681997251    2.73495099456605
H         8.12989991611478   -0.82427610395595    2.89383971469103
C         6.97107690547393    0.83952486235718    3.61321475828757
H         7.59506768015259    1.03334971956001    4.47207940552786
C         5.85558816844330    1.61701247037383    3.36538481429362
H         5.56840782891439    2.43200439117193    4.01141175641179
C         5.08139606341346    1.32632791619745    2.24588616914559
C         3.90050301355282    2.03997052585377    1.85342394200328
C         2.05787256032435    3.15852700297305    1.69793961184612
C         0.95774115277174    4.06943858664706    1.94085860102359
C        -0.01270151673203    4.24747739649552    0.94997659870822
H         0.07876139067049    3.70963604557812    0.02115546085533
C        -1.05785999813380    5.11450651658616    1.20344655134215
H        -1.82846635952162    5.27406502705243    0.46326713034308
C        -1.10281922051830    5.77736509862843    2.42258306996276
H        -1.90437643682755    6.45898855278837    2.65949679519018
C        -0.08702076042967    5.53695344066284    3.33572695470296
H        -0.06878192590788    6.02354286116641    4.30239618140051
C         2.47636779694985    3.23274966117735    4.66281011943744
H         1.58822778360432    2.64648772077197    4.43949267883913
C         2.61608729448470    3.79409071078582    5.97620494720106
C         3.56819064702335    4.80393587752221    6.17365876002415
H         4.18279319923757    5.08369923137179    5.33226936296976
C         3.70049661028961    5.43875827228717    7.38244541080730
H         4.43408876604996    6.22158821997944    7.51132474460506
C         2.87790775301737    5.09290050416598    8.46212309125077
C         2.97887178624317    5.75365481426476    9.71769377341994
H         3.71227519880514    6.54113893675945    9.81902205841967
C         2.18268032027876    5.41237087494296   10.75896907945716
H         2.26550890577059    5.92153578328698   11.70872343609040
C         1.21838180767432    4.37184213259518   10.63476994028782
C         0.39039624888214    4.00054294539652   11.69645683650746
H         0.48017630038763    4.52044623768339   12.63954409096849
C        -0.53333081171527    2.98192408238788   11.55059758282881
H        -1.16495358761184    2.70798156062679   12.38312461388202
C        -0.65153937007327    2.30971553241238   10.34832802930655
H        -1.37084204772440    1.51076153557535   10.24056448614063
C         0.15393868196497    2.65003146134796    9.25920634831878
C         0.07019399091480    1.97278872942107    8.01099102136284
H        -0.63385355565487    1.15850439211902    7.91767524183625
C         0.85236628334791    2.32139278619180    6.96023104475944
H         0.77234187577304    1.76062132443210    6.04305054401702
C         1.79158114294850    3.38846855344000    7.05278732421064
C         1.92244123618233    4.05767552813866    8.29881227239349
C         1.09983390706373    3.69501701688166    9.39483434366657
S         6.52914835572849    0.18743153686626   -3.68518719177449
N         5.14539186852156    0.74375590396328   -1.35952252980337
N         2.64860282232139   -0.30539094338877   -1.40118729234396
N         4.68230533431734   -1.75826733930985   -0.68696044664535
N         5.79548463903367   -2.46518165485539   -0.58559210726059
N         4.88670826443052   -2.91846446755377   -2.53067431770705
N         4.62463154895927   -3.40267245828954   -3.77036633414507
N         7.09181996362271   -4.71248856610839   -3.10632149130544
C         5.73163382955256    0.50846363753138   -2.35019480139574
C         1.57027397438972    0.42960618987897   -1.65161249981789
H         1.38779364171166    1.23849916288601   -0.95924850666295
C         0.73905180371410    0.19698996936000   -2.73381523239060
H        -0.12395580108556    0.82414563339649   -2.89178893418950
C         1.03458740472418   -0.83953963415387   -3.61196267142443
H         0.40938452692768   -1.03415170065940   -4.46976427752294
C         2.15076822153517   -1.61641397628946   -3.36526718232744
H         2.43726016959903   -2.43171941873040   -4.01121616196901
C         2.92627095935428   -1.32496236053058   -2.24688852200360
C         4.10709532074056   -2.03875773348818   -1.85458556651111
C         5.94785024089184   -3.16007111902029   -1.69696532624343
C         7.04546050712608   -4.07450002810782   -1.93792681563724
C         8.01161645596272   -4.25830002254617   -0.94390217521914
H         7.91905880593006   -3.72160013722067   -0.01452368284542
C         9.05381079987160   -5.12955099036350   -1.19500772342324
H         9.82105793118929   -5.29370930789620   -0.45234955224302
C         9.10013037016569   -5.79076371731334   -2.41500042666175
H         9.89941743905418   -6.47568750973045   -2.65004974230014
C         8.08871137075944   -5.54440809980948   -3.33139339939393
H         8.07163880443623   -6.02954683163998   -4.29881000795778
C         5.53137506314580   -3.23515386726796   -4.66212066524372
H         6.41934409802830   -2.64841631565175   -4.43913306829615
C         5.39230325733051   -3.79817617350420   -5.97499173436605
C         4.44603726369069   -4.81400650909631   -6.16946199419992
H         3.83555771662032   -5.09735650909480   -5.32627507829488
C         4.31455107885236   -5.45020998384921   -7.37765128133132
H         3.58591356296036   -6.23804526299274   -7.50409735263520
C         5.13118284334466   -5.09877823336393   -8.46001351163784
C         5.03000632988204   -5.75967600431600   -9.71551852831373
H         4.30196588130097   -6.55244477184595   -9.81429201090030
C         5.81924448675988   -5.41185801607933  -10.75990321746964
H         5.73608134188995   -5.92091712153603  -11.70968659309936
C         6.77652415052281   -4.36446665391909  -10.63900088342061
C         7.59670669870351   -3.98589043461266  -11.70415617908274
H         7.50591405513000   -4.50501369219899  -12.64757873310874
C         8.51393915625417   -2.96098811697203  -11.56132672909857
H         9.13945160712908   -2.68135214757613  -12.39657090274833
C         8.63339293534999   -2.28976278384565  -10.35862923411488
H         9.34776550077690   -1.48609507241178  -10.25316410036158
C         7.83540740730002   -2.63702155840401   -9.26618444225848
C         7.92045808603876   -1.96092186481793   -8.01741977392071
H         8.62015728951459   -1.14269137808155   -7.92597989086542
C         7.14469208691869   -2.31534892465310   -6.96385820453356
H         7.22528250137273   -1.75534075247678   -6.04625020209096
C         6.21142499891741   -3.38787309216748   -7.05385569822520
C         6.08032635480496   -4.05727831717712   -8.29975759819588
C         6.89598046620003   -3.68821086893372   -9.39883654638005

