57
CSD_code = CEWBIR | q = 1 | S = 0 | Stoichiometry = C22H28AgO4S2(1+) | MND = 4
Ag        5.83793338615707    1.83713440082901    6.58772375439122
S         4.51036045148074    4.20790170887537    5.97956358286123
S         7.42897226151602   -0.09365930174205    7.55223386163614
O         8.50263158616185    2.89332465264578    6.89825613224949
O         6.23449260466786    3.44661993055249    8.51825526320871
O         3.36090089148632    1.38019170407699    5.78485615354546
O         5.45611579543679   -0.37552807562123    5.13211677381799
C         8.08316942794480    4.20650705507566    7.19597269299975
H         7.36000739036195    4.45172641403612    6.41214738188494
H         8.91362021348377    4.91757235241627    7.14719974774105
C         7.40298051337877    4.25958583510584    8.56542707769390
H         8.07630140080860    3.85669611305490    9.33311631210339
H         7.14838872544432    5.29214092119758    8.82452866915883
C         5.14981906477548    3.93616587464531    9.23622540316145
C         4.87745319283372    3.40501598385213   10.48766009110693
H         5.53318819030455    2.64450561025811   10.88271828137696
C         3.77657415909056    3.84436416914006   11.20218894248723
H         3.56843357000113    3.43121219799034   12.17637278059406
C         2.94896855622705    4.81493120418098   10.66398325815230
H         2.09106443555429    5.16385106838333   11.21667033634757
C         3.21527401674061    5.33573495880972    9.40989364410173
H         2.56191447096654    6.08695104207036    8.99121912325442
C         4.32041260008670    4.91399694782859    8.67859704104295
C         4.58074243706781    5.47176210219783    7.31708039952018
H         5.57188105418008    5.91383137121699    7.22764019465139
H         3.83680965100384    6.22480958130810    7.05738060453192
C         2.80035208470352    3.64131970151870    6.27636933160951
H         2.70889280449837    3.38306430660061    7.33144802071539
H         2.12933081535556    4.46299235852106    6.02643401392226
C         2.50634105279696    2.43954719508905    5.40696615924271
H         1.45745427709903    2.13512910841783    5.54070219833562
H         2.66369162549165    2.69105475406145    4.34791280540181
C         3.16914816697381    0.23656781651347    4.97907909018398
H         3.35127150768007    0.48745177656005    3.92533764348422
H         2.13992367938078   -0.13156867410136    5.08910640076971
C         4.14726433625530   -0.83633960496840    5.41977490184183
H         4.02050424247608   -1.02253752389123    6.49349173310661
H         3.94770049824474   -1.76137153386860    4.86379105807223
C         6.45238980936116   -1.36225051361925    5.26625317284234
H         7.30779194947756   -0.99820762345609    4.69154668535782
H         6.11114477806587   -2.30734604172919    4.82186486365341
C         6.85856931164574   -1.61106894721869    6.71571099099477
H         7.66386084379026   -2.34302114132902    6.76689321417900
H         6.01841645324274   -1.96943989412180    7.30865850762998
C         8.96556851993795    0.21010021448841    6.56751222390641
H         9.39893748435847   -0.77047016560623    6.37681591346298
H         8.68505663470908    0.69860595757169    5.63558712119703
C         9.90668106601639    1.05597344385097    7.35543413156405
C        11.03378386300579    0.50054746561732    7.94038201338818
H        11.22942510506588   -0.55297940590272    7.80886584922942
C        11.90738299069207    1.27725358526568    8.68000742110161
H        12.78291245873089    0.83466053289887    9.12657239567766
C        11.64183417035746    2.62316397147310    8.84168228585109
H        12.31073474917457    3.24368702364899    9.41726054676261
C        10.51410012926437    3.19450122071448    8.27398579546599
H        10.34445093413809    4.24741535049644    8.43044142154828
C         9.63627361086051    2.42021946412912    7.52598458588372

