59
CSD_code = CEWBUD | q = 0 | S = 0 | Stoichiometry = C22H28Cl2O4PdS2 | MND = 4
Pd       -5.87583576820274   11.64640203136971   11.89867015526662
S        -3.98484407826405   10.30259206152447   12.13251477275947
S        -6.20146778194506   10.74547222205426    9.75847908555401
Cl       -5.44496680726519   12.67941848434647   13.87770386393115
Cl       -7.53835821446229   13.16950778353659   11.56709997109849
O        -4.17721727699583   11.03364204685661    7.56690351767911
O        -2.32231857751396   10.52465370529689    9.55211722593437
O        -5.53767567191828    8.57935881984943   13.65302573336962
O        -7.56803371357222    9.34959765199532   11.86467469781724
C        -3.51928188863172    9.78877369762729    7.64100475777435
H        -3.39687915747381    9.32620426058334    6.65556008437362
H        -4.09916704765332    9.11628101713060    8.28878832606653
C        -2.14029289805219   10.00769104045906    8.25662037804449
H        -1.61459017423786    9.04381820818441    8.28601863958025
H        -1.56781455171341   10.71715460663614    7.64342162853408
C        -1.23364516495175   10.73431891937726   10.34154173704360
C         0.06927409251152   10.37248095032286   10.02755623984850
H         0.30162651790329    9.90619609591499    9.08308601382137
C         1.09107604878307   10.60872591139553   10.93424901035134
H         2.09903728221245   10.31834911883713   10.67858919181279
C         0.82917489624089   11.20786009907897   12.15127026190561
H         1.62823764052978   11.38711406618793   12.85363038666101
C        -0.46724415742191   11.58620135206743   12.46123404521159
H        -0.67859458700993   12.07101213713223   13.40306646640659
C        -1.50095066454190   11.36634300044392   11.56808877564869
C        -2.90285322436670   11.77444023105318   11.85935727540651
H        -3.34191871256103   12.27504574424423   10.98448885901328
H        -2.98048730225619   12.41398145091849   12.74020015418323
C        -3.62037299145036    9.94102556981411   13.88630297253225
H        -2.87327366730537    9.14799056365278   13.88741789877058
H        -3.23992313976202   10.83682245274128   14.37066444919188
C        -4.91338382501901    9.48825993018373   14.54283856117016
H        -4.70801500850032    8.99552756313882   15.50643649497927
H        -5.54651869370300   10.36677162623169   14.71907681591444
C        -6.90079152169418    8.34331591897526   13.89967263774576
H        -7.10194252886887    8.28503578956330   14.97772578733894
H        -7.11048033012027    7.37518341335432   13.43568236305681
C        -7.82208952481340    9.38927676698535   13.25806998290731
H        -8.86812601676058    9.12019496603818   13.46626839392205
H        -7.62469703928093   10.40734925286695   13.65124654069134
C        -8.51734566009796   10.03840159226732   11.07148315573027
H        -8.70086460171583   11.04651313709192   11.47558331989471
H        -9.46751654776638    9.48030869029975   11.04386657583368
C        -7.92866346305133   10.14305465699084    9.67269956100616
H        -8.50500953179032   10.82199129774827    9.04938925486599
H        -7.87532275088101    9.15800244179871    9.20852366701609
C        -6.30018184221772   12.26425211025283    8.72392757768815
H        -7.15939876158636   12.84940367938167    9.05003539691447
H        -5.37502111031251   12.80240356960411    8.94567833508281
C        -6.36164694140637   11.86054710063131    7.29065343956555
C        -7.47754839925948   12.09336549206512    6.50368974485007
H        -8.31599764098889   12.63135965656484    6.92192814112457
C        -7.52212771001596   11.64863671753235    5.19282029568845
H        -8.39487627543127   11.83829337110668    4.58727138966544
C        -6.44580804553305   10.95873506637474    4.66579735181221
H        -6.47358930431554   10.60921122355585    3.64471299105876
C        -5.32154788518785   10.71578295110070    5.43733369910652
H        -4.48366110198380   10.18804465730335    5.00675583894515
C        -5.27014719437231   11.16450206050894    6.74938611117734

