34
CSD_code = CEWPEB | q = 0 | S = 0 | Stoichiometry = C16H14CrO3 | MND = 9
C         8.04722379620199    9.38276261421818    0.26094144629416
C         6.90155393719114    8.99752760800821   -0.43493299630506
H         6.68643247423983    9.39877802496974   -1.41843021754459
C         5.96287866618737    8.16974134366170    0.21630882887686
H         5.02947408435765    7.93070399293534   -0.27964711106238
C         6.18904290220309    7.72167798841102    1.51955300385521
H         5.42544442533798    7.14443355087319    2.02782794805999
C         7.35241228826828    8.10268934987700    2.22784140393871
H         7.47644539960741    7.81027227910982    3.26367791685886
C         8.28041762553113    8.90993904908316    1.58677309318353
C         9.52401383157941    9.57089833029444    2.12050821606594
H        10.29143440005175    8.83470484518608    2.38537252366185
C         9.98301995890169   10.39906854256145    0.94009125341594
C         9.12846947824990   10.27940172526399   -0.08821995467730
H         9.21853979341526   10.75909953591294   -1.04751545919637
C        11.24082681714170   11.18756459683678    0.98209119396227
H        11.41863262017547   11.67507501330541    0.02723378676478
H        12.08437262596162   10.53417376425038    1.20434239345288
H        11.19856968982050   11.95000532538223    1.76042456987635
C         9.21136808065681   10.41730446448494    3.37436740155809
H         8.92606921245615    9.75335712566488    4.19239585474009
H        10.11531337484180   10.95461190243987    3.67045236065956
C         8.10841604035714   11.38926980430814    3.09699523016608
H         8.33306415500953   12.14733740583258    2.35789388569512
C         6.91801470406514   11.34391758272834    3.66405579678716
H         6.66776407762209   10.59712422580847    4.40041277339277
H         6.14486333294363   12.05519301105526    3.42890322083094
C         7.90955406122251    6.25141783004231   -1.33411246446031
C         8.04008770421926    5.38689443803851    0.87191607533578
C         9.75664404629487    6.83169197905473    0.05176927084878
O         7.93129333047930    5.65994356842068   -2.32667189682055
O         8.13900192934284    4.28160330519236    1.19588602658865
O        10.88409111615676    6.61851890301905   -0.09536132973181
Cr        7.97315001991044    7.10589697376755    0.27385595492696

