34
CSD_code = CEWPOL | q = 0 | S = 0 | Stoichiometry = C16H14CrO3 | MND = 9
C        -3.40042253183605    0.72927755314855    8.05526880069943
C        -4.18348948204190   -0.39026623735647    7.76238170435135
H        -4.10009425592348   -1.29764058826549    8.34685876712101
C        -5.00313415462466   -0.36146397367343    6.61611937277941
H        -5.55379233196691   -1.24992652622950    6.33033970595954
C        -5.07212627251460    0.78357125194491    5.81870514496873
H        -5.67124302401684    0.77199829733192    4.91555682205667
C        -4.27346695685897    1.91592113562302    6.09968375002683
H        -4.26718703446432    2.76172870028068    5.42225945110005
C        -3.45424471933238    1.88071657882888    7.21898892990165
C        -2.45305044928447    2.87544528251163    7.72491973723078
H        -2.91166891352468    3.83428142601041    7.98093558981868
H        -1.67171016257054    3.07503468301244    6.98394416500340
C        -1.89410066446832    2.19845470620385    8.95253774726974
C        -2.44037251226964    0.97871907557860    9.12128937863352
C        -0.91310218194924    2.91122403741824    9.81329816690864
H        -0.42181057236924    2.23311346238860   10.50578042260458
H        -1.42183314181995    3.68230202059397   10.39345401746114
H        -0.15450940318373    3.40081491477072    9.20377326425037
C        -2.26643401403472    0.01582910494239   10.25396702056085
H        -1.46136288145646    0.35532393199747   10.90950075866496
H        -2.00598546036955   -0.97720824188781    9.87736235323865
C        -3.55036595430698   -0.04913622868710   11.03347437131363
H        -3.93484477751959    0.90840206999393   11.35781590477251
C        -4.20671954786316   -1.16032888985227   11.30634918378134
H        -3.84532501160649   -2.12843232122622   10.99588816426170
H        -5.12885735788314   -1.15137784111861   11.85979500894522
C        -7.09049038884049    2.29609754752740    7.53618931402890
C        -5.49118820703249    2.63418620540479    9.28579831567923
C        -6.65186398956287    0.60083716952693    9.16471238599607
O        -8.07677923620745    2.87083402962722    7.35252546678969
O        -5.48628272310980    3.39921882373071   10.15472772773754
O        -7.35721881735260    0.16376071680130    9.96952203004760
Cr       -5.55752286783481    1.40288812309863    7.95267705603630

