37
CSD_code = CEWPUR | q = 0 | S = 0 | Stoichiometry = C17H16CrO3 | MND = 9
C        -3.23210755792002    1.97080366298751    7.77653094894847
C        -4.00212386069324    1.96539671408718    6.61610660005816
H        -4.01134358392549    2.81392468526655    5.94234880427934
C        -4.73017559514593    0.79997444500783    6.30933250128558
H        -5.29269855366547    0.75619503822691    5.38364881654296
C        -4.63478745878460   -0.34645947290986    7.11041840215872
H        -5.13361483949085   -1.25805966944568    6.80436174486820
C        -3.85841793250019   -0.33553158500990    8.28136405096854
H        -3.74969363563770   -1.23770914835296    8.87012942045656
C        -3.12816380747680    0.81662522289364    8.59826608089663
C        -2.18882554371270    1.09584436082717    9.67519164598585
C        -1.71057222944907    2.34780858691066    9.53272116475551
C        -2.30349438436027    3.01621861525919    8.31663702029259
H        -2.83027538888940    3.93456262256646    8.59066034058573
H        -1.53144220738283    3.28841047965188    7.58985575306897
C        -0.77239956207540    3.09978316403879   10.40777843748748
H        -1.31547391033603    3.86978276112044   10.95751082019217
H        -0.00803880549506    3.59653630266105    9.81094645319552
H        -0.28430985693473    2.44720436530437   11.12632143053585
C        -7.00947919322187    1.91482044314159    7.92637707925744
C        -6.25555262295684    0.63638936135781    9.78446414299387
C        -5.50025366063327    2.86527526582459    9.46628910668811
C        -1.91536633388849    0.10067296516331   10.75940137210579
H        -1.12292489380804    0.47527249862070   11.41123750227246
H        -1.57379006776022   -0.84000176559472   10.31853892478693
C        -3.15852115676298   -0.14359650899877   11.58298329725345
C        -3.68109592503691   -1.35036486103874   11.72443677000665
H        -4.56615334945335   -1.51612618814456   12.31334046392758
H        -3.24620451174509   -2.22402780561727   11.26587907054066
C        -3.74819249180409    1.07316659374498   12.22324023481746
H        -4.58156932077643    0.80559808254479   12.86540378426122
H        -4.11284788842830    1.76270177188155   11.46084349195702
H        -2.99517637358368    1.59266677629236   12.81465580745024
O        -8.08682159454334    2.26645208247101    7.69796554626474
O        -6.87951756666248    0.22340060764954   10.66506823087896
O        -5.65899138837512    3.79121232304768   10.14493581697719
Cr       -5.33228294668442    1.39667720656327    8.41160892099814

