44
CSD_code = CEWQAY | q = 0 | S = 0 | Stoichiometry = C22H18CrO3 | MND = 9
C         5.21469103050558    3.33264037776737    4.66748332159186
C         5.65731016900842    2.71473389453726    5.82609797046993
H         6.71189710206730    2.66510459881130    6.07047536045253
C         4.69375638491575    2.20800719879242    6.72911991911983
H         5.02403564633546    1.77637416720208    7.66646285324162
C         3.32811062717309    2.36568801796945    6.48349929811026
H         2.60772027323982    2.05394211631009    7.23094478648946
C         2.87543898383615    2.98509399449846    5.29989763871598
H         1.81548823738119    3.15375220645012    5.15010055080608
C         3.82184037415902    3.46968882158410    4.39368065077817
C         3.67055203694611    4.17652513807070    3.13010557651234
C         4.88792184708873    4.49161604022563    2.64631814002734
C         5.97808741220160    4.02468807610882    3.57831212773253
H         6.67240090232861    3.35517643617323    3.06365347155568
H         6.56282496549740    4.86536955907210    3.96721977092911
C         5.22816452099646    5.14280769224278    1.35389168783866
H         4.40930391639790    5.76000153569950    0.99318349736925
H         5.43090528462531    4.37924326533012    0.60141375862268
H         6.11899298762292    5.76010016396611    1.45601268946228
C         5.15721209359258   -0.28031886138719    5.00883636495037
C         2.91401089025385    0.07614893063937    4.36709102761221
C         4.68490463160256    0.90170688620121    2.98566952013122
C         2.33920584829585    4.33682666223402    2.46243398556825
H         2.38132526973029    5.11515585845082    1.69995385632244
H         1.58194851944793    4.61473976228942    3.20179613074270
C         1.99406173747943    3.01437180502224    1.84022526240764
H         1.86012404230423    2.19828838102983    2.53741706492415
C         1.90994005564270    2.81095955304618    0.52953860167049
H         2.02866214128385    3.65382784031991   -0.14232151658576
C         1.62454288734503    1.53966053647398   -0.12228949579475
C         1.75557663153128    0.31303382185978    0.52994577269668
H         2.09894371263799    0.27634017392409    1.55202951142230
C         1.47628558309973   -0.86690944655944   -0.13181251516643
H         1.58854756945734   -1.80634970727428    0.38845135243108
C         1.06072375359256   -0.84986414204857   -1.45352918081936
H         0.84292798225442   -1.77468946524121   -1.96733761125458
C         0.93361270547774    0.35998910461593   -2.11543447956535
H         0.61567718894660    0.38184973749058   -3.14812983048808
C         1.21768394541353    1.54109118878855   -1.45755332427153
H         1.11788287724341    2.48282555871823   -1.98006066633841
O         5.70276792316653   -1.29259187869353    5.12905281390809
O         2.12362880536100   -0.72791520724188    4.10529301281269
O         4.96165537551454    0.62786067509485    1.89697521626088
Cr        4.24430512698580    1.26760893142889    4.71208605661082

