112
CSD_code = CEWRUT | q = 0 | S = 0 | Stoichiometry = C38H70NiOP2 | MND = 4
Ni        7.60001668113545    8.80543081760927    5.54241253952664
P         7.30571987321264    7.62194589344208    7.45464556850584
P         6.73494316333645    8.16153933094647    3.61702317697909
O         8.69712763807436   10.10099932633356    6.29688040650211
C         6.42828706279908    5.96078790936257    7.60118847487486
H         5.52891788129207    6.10799368970036    6.98845961675423
C         5.95441661655086    5.44807637440197    8.95959395353620
H         6.80231252877372    5.22687089633240    9.60650138929065
H         5.32784597770138    6.18684716664535    9.46006380526964
C         5.12845160165245    4.17502816203999    8.76161967176155
H         4.79694303548143    3.79969229886101    9.73266566058810
H         4.23711412742519    4.41220206644418    8.17484020056274
C         5.93198818039207    3.09849686210852    8.03878706174915
H         5.31406334813574    2.20987162489346    7.89154721070888
H         6.78802883037613    2.81088640109181    8.65395776925355
C         6.43030706458137    3.62108750438506    6.69506781150728
H         7.03119559088362    2.85549626188611    6.19767228962646
H         5.57483770294921    3.84611234466666    6.05279797262081
C         7.25878461021865    4.88421673240573    6.90743253969102
H         7.61645980920814    5.27393888987945    5.95343649166359
H         8.12644420742849    4.63246387076100    7.51886012432531
C         8.98820770775237    7.47445674698573    8.24569984812217
H         9.23323083779866    8.52500222406370    8.44381147622403
C         9.13351288174573    6.68904921484478    9.54308379985870
H         8.97153741188803    5.62532677433290    9.36117053435863
H         8.40268663084111    7.02767418665015   10.28052913890904
C        10.54726201084877    6.87714033109669   10.09311219401941
H        10.70962715450591    7.93268166961262   10.32358694706415
H        10.66365446070231    6.31067994461932   11.02061330066562
C        11.58440199576543    6.41909139512828    9.07109321902001
H        12.58998977292843    6.56850134063940    9.47072877195506
H        11.45722613555753    5.34992137676211    8.88175742223959
C        11.42432733712520    7.18659079532893    7.76109036889423
H        12.15786836987131    6.83428178715530    7.03209655238049
H        11.60998788484982    8.24818255524026    7.93721534406176
C        10.01316948041659    7.00748128968134    7.21135219571312
H         9.85884288274170    5.95923836979261    6.94994151210195
H         9.88483396524252    7.61287254365912    6.30480094298830
C         6.35538788520771    8.63128714281031    8.71680721188980
H         6.18079468655999    8.03840926321222    9.62015133686603
C         7.09270961379513    9.91043820005960    9.10954038868647
H         7.99420314324512    9.66489084662086    9.67273109170590
H         7.39589777818763   10.44071108114810    8.20489772450060
C         6.21802957393030   10.81519695553861    9.97428164632172
H         6.77027344791073   11.72463666225555   10.22143984633056
H         5.98035485285377   10.30479145043925   10.91213309728134
C         4.92123595696635   11.17105912900247    9.25796968437248
H         4.30709512629242   11.81920568171024    9.88739067251212
H         5.15118644067304   11.71584936607903    8.33945540378596
C         4.16052287113270    9.89623776042735    8.91562701482769
H         3.89011480571745    9.37723348816375    9.83917289400828
H         3.23452730931262   10.13932408006238    8.38784138618330
C         5.02151907254875    8.98067329964072    8.05324564409890
H         5.24761876127238    9.47930388970736    7.10223835172136
H         4.46541213196997    8.06629249066340    7.83096284254614
C         4.86683894802392    8.14275269095335    3.52655791797853
H         4.53314786484013    7.83294550148619    2.53137676987852
C         4.30035600108934    7.18270347028170    4.56891782441028
H         4.73531939998594    7.44852547798516    5.53590844633754
H         4.58648796795053    6.15579938065198    4.33440738519632
C         2.77857041864215    7.26388384001753    4.64815818807731
H         2.34830645576615    6.95255865660431    3.69250254712058
H         2.41443324477856    6.57663387879217    5.41573333141989
C         2.32771191834438    8.68472126455580    4.96445288133500
H         2.71158512818967    8.97754597453660    5.94376255144312
H         1.23718650544887    8.73346114151634    5.00091276492555
C         2.86150929335717    9.64143427894469    3.90549824864931
H         2.43571103204013    9.37948723929814    2.93304982996934
H         2.55769036143900   10.66480585974513    4.13718022446928
C         4.38259625495401    9.56162136189366    3.83075996030435
H         4.81264383603598    9.86436984356769    4.79112030218835
H         4.74087398240772   10.25813698949622    3.07091906887886
C         7.16992730366959    6.39471266801283    3.18165099664619
H         6.61498472049978    5.81951900259334    3.93500035751219
C         6.78689135151686    5.85572420420512    1.80789361919520
H         5.72919934923644    6.03287418826977    1.60431552490252
H         7.37455638717662    6.35016552922715    1.03387494813399
C         7.07797816083336    4.35599144996164    1.75051970749156
H         6.80426677294784    3.96365678871034    0.76821477936916
H         6.47164578450422    3.83814397603786    2.49783233777194
C         8.55531195033330    4.08649830365408    2.02356842085388
H         8.74970210696966    3.01232864010582    1.98873795871704
H         9.15874102855378    4.55917309790882    1.24471070263857
C         8.95790942195959    4.64572172358196    3.38575661734520
H         8.40419510906989    4.11816314511132    4.16539471203020
H        10.02278701209915    4.47552574833847    3.55878499286612
C         8.65425569161554    6.13973122730455    3.45075707556558
H         9.26991155267233    6.65083350157330    2.71145463434081
H         8.91074790697048    6.54802011565201    4.43540920907711
C         7.14676106269910    9.22565477443641    2.11838414871264
H         7.00887964694139   10.24044663832234    2.51693551660450
C         6.30158108489536    9.12893324778044    0.84795297249464
H         6.45577549870504    8.17077031988600    0.35327941118681
H         5.23899903402154    9.22557267353304    1.07087190553204
C         6.70127492378182   10.25306862468650   -0.11021708703846
H         6.48868948572512   11.21845059576669    0.35647222808778
H         6.10312771579669   10.18671217092300   -1.02218833798353
C         8.18490237581238   10.17968373565035   -0.45823006622866
H         8.38530495695242    9.24689146517709   -0.99138713544307
H         8.45215389211601   11.00553872735233   -1.12103386588216
C         9.03332790492259   10.22824739664748    0.80901683018424
H        10.09141641459955   10.13708436443113    0.55302920190790
H         8.89203045106596   11.19060244196407    1.30688458394797
C         8.62500993072145    9.09881406804102    1.75020715723606
H         9.23583731930304    9.11959009236691    2.65657453602692
H         8.80038892808430    8.14841113701482    1.24355380338212
C         8.31761459254273   10.57953816366094    5.19532683904161
H         9.03548369332279   10.61642246805873    4.35170199900057
C         7.28197265756353   11.69486432680151    5.14470750326962
H         6.52625038190581   11.55233302380993    5.91721489653700
H         6.79969300658967   11.75393670897965    4.17182506597539
H         7.78748890825060   12.64436491697003    5.33369951474949

