45
CSD_code = CEWSUT | q = 1 | S = 0 | Stoichiometry = C21H17ClN5Ru(1+) | MND = 6
Ru       14.93067108943386    1.45578419062464   11.22160057666589
Cl       15.32692396626264    3.75246120450903   11.24810446158266
N        14.31359947326853   -0.45670244229168   11.12885304288540
H        14.83485580995534   -1.31899200587765   11.28484517702897
N        14.78515173905438    1.55330299886077   13.23388271001170
N        16.78000255343186    1.28715501815216   11.68523033608731
N        15.74241035884307    1.43342244066396    9.37213119225105
N        13.05809238823033    1.67883670072224   10.75093676789840
H        12.57825584365193    2.57247871509507   10.60396541936468
C        12.31377180163291    0.60263910041072   10.60195462809691
C        10.93596266895490    0.54726023274394   10.26422467676668
H        10.39771388423406    1.46952610175992   10.10201288834133
C        10.32256442420947   -0.66392089268830   10.15204403720706
H         9.27624186251862   -0.71925129132617    9.89613320777319
C        11.03504339919511   -1.87038918619790   10.36630830752310
H        10.50745145455105   -2.80611807627187   10.26641300135937
C        12.35875590535227   -1.86766342909952   10.69230172627566
H        12.89897920924759   -2.78857324883704   10.85495255343829
C        13.04358784795011   -0.63285215685630   10.82144618047961
C        13.67848964412625    1.69797565767374   13.95876741875839
H        12.74253343027319    1.72491254232319   13.41288744291502
C        13.69544713270931    1.81871505698624   15.33660142998199
H        12.77147628195933    1.94329608991315   15.87696162563067
C        14.91559291370350    1.78496800652364   15.99840682655989
H        14.96481717838346    1.88296423369351   17.07115574423558
C        16.06951671465999    1.62797385714985   15.25317723163935
H        17.03187701705426    1.59883368522966   15.73669073682230
C        15.98204766734636    1.51808613200224   13.86670565665189
C        17.13607724773821    1.38990248972657   12.97626692033587
C        18.47986987949466    1.42614891809782   13.33923716425258
H        18.77090860068045    1.50714531095454   14.37295559291674
C        19.44335420769625    1.38291483870591   12.34251142806970
H        20.48970561421863    1.40593485774407   12.60119230257894
C        19.05710412055806    1.35422140723237   11.01074977361618
H        19.79806067165065    1.37914038697383   10.22959609061219
C        17.69884788231434    1.31977973100127   10.70606706087475
C        17.09569739369707    1.37938024944622    9.37426173311276
C        17.82170892921189    1.41063588241883    8.18515118362098
H        18.89798509459197    1.36793945055146    8.20929071843858
C        17.15133546338192    1.50757381142030    6.97985694244076
H        17.69694537290299    1.54456238490802    6.05046789385300
C        15.76394613817645    1.56132023391903    6.99250184207110
H        15.20085768797972    1.64098646946525    6.07717600042648
C        15.10416595795102    1.51981244777346    8.20752208035953
H        14.02209607756009    1.56427189407045    8.25090026818751

