35
CSD_code = CEWTUT | q = 1 | S = 0 | Stoichiometry = C8H18CoN4O4(1+) | MND = 6
Co        3.47875095471187    4.12443698581017    2.44512717718486
O         4.53591303379648    5.63447697533025    2.30673018979687
O         4.62586437678186    7.81419539019915    2.68325069186359
O         2.39549432758728    2.63206549356355    2.57034298647042
O         0.89326788270804    1.39854715709870    1.51083096727266
N         4.22783176438304    3.70272766046359    4.22501854506316
N         4.97433954212234    3.04023999932375    1.74106205804440
N         2.07855732298075    5.31322100343688    3.15937888628861
N         2.67072100230777    4.41768484580621    0.67178793840328
C         5.59613956973989    3.18558901315384    4.05070645820280
C         5.55259183248990    2.25772546112938    2.84718099396605
C         1.04438219264128    5.45854114305131    2.11597205530817
C         1.76474987846751    5.57789086974095    0.78314453972653
C         2.71641492716025    6.59669153816987    3.51299603442794
C         4.08320717697318    6.74760914551239    2.77111676591125
C         1.96644281144131    3.17840870129477    0.28765151217627
C         1.68758057444474    2.29716722728288    1.54746262699802
H         3.64001297195151    2.94624380690593    4.58678363019097
H         4.24267271501343    4.44354653973028    4.92607475028102
H         4.78421218690945    2.41372779836311    0.95883632842844
H         5.67133783460673    3.72239316548468    1.42886751222578
H         5.94802440294526    2.66200282754827    4.94405868955326
H         6.25902938219076    4.03028513674658    3.84592658724877
H         4.89079353294971    1.41232296025186    3.05256187749622
H         6.54890267427323    1.88111309496422    2.59911169519449
H         1.61187807396932    4.93626086086657    3.98566240774497
H         3.35537687351644    4.64720980504816   -0.05012903307996
H         0.41161369823859    6.33146845731829    2.30434505535188
H         0.41517515565393    4.56484918400885    2.12277298001298
H         1.05546557522241    5.60801628565010   -0.04985218105170
H         2.36466421268464    6.49129904838670    0.76223383721813
H         2.92653159877953    6.64269774827984    4.58339820732855
H         2.08396657191704    7.45116675986646    3.26284509302128
H         1.01833653605293    3.38484039099914   -0.21351023132377
H         2.57665683238759    2.58073751921330   -0.39234763294623

