116
CSD_code = CEXBIS | q = 0 | S = 0 | Stoichiometry = C55H55ClN2ORuS | MND = 5
Ru       -1.39948976867675   -0.03114439347454    4.81663651885765
Cl       -2.91357747205047   -0.04386591419210    6.58517509456033
S         0.59767226492579   -0.16046270829385    3.59848716170128
O        -1.59571822561548   -2.27285305103533    5.05578152807299
N        -2.19349939875813    2.86820266972476    4.22809321101889
N        -0.87045126914651    2.57928433378003    5.91230782416346
C        -2.84900610275499   -2.58363473304283    4.60963773869990
C        -3.55466915862340   -3.73051201081956    4.92827142982327
H        -3.16134105368885   -4.45962028184110    5.61930141507726
C        -4.80722232185743   -3.94750501795033    4.36908192206292
H        -5.35124861706284   -4.84227208870773    4.63242360388524
C        -5.35756353672955   -3.03299451206230    3.48479640241696
H        -6.33363434562323   -3.21566941910797    3.06041887682361
C        -4.66382598025754   -1.88774300284824    3.15877477294135
H        -5.08766037183809   -1.15292795578684    2.49016628497939
C        -3.40600526791252   -1.62356875470484    3.72100966424187
C        -2.71351637363440   -0.40437027971324    3.50588909257674
H        -3.07931558489690    0.21617390998072    2.68780163031952
C        -1.05581252687601   -2.95493358216977    6.18893522333194
H        -1.87332592094172   -3.15510656018728    6.89736862401090
C        -0.37994472884221   -4.26181299595840    5.77324009696599
H        -1.03961265646116   -4.87455123161324    5.16438548490536
H        -0.09900016216213   -4.82562691586356    6.65934870341333
H         0.51301771076227   -4.05176252599083    5.19062981606820
C        -0.05160942092264   -2.00639036903984    6.83908098428189
H         0.72108312749750   -1.72151038292747    6.12125962759151
H         0.42901660597237   -2.48995362239953    7.68578271836615
H        -0.55654677060406   -1.10875971191899    7.20647551560788
C        -1.46765870484762    1.96430924254600    4.88145715158344
C        -2.97911384705377    2.69872935950188    3.05934878972244
C        -4.35407048169748    2.48689726705629    3.17207298199255
C        -4.99046240220759    2.31060958592868    4.51509960691540
H        -5.98518401023950    1.88535736230827    4.41369495100850
H        -5.08111473583762    3.26390377315514    5.03598363809464
H        -4.38595099063687    1.64256978330795    5.12867903635810
C        -5.10477966646689    2.39936375342378    2.00934409615625
H        -6.16881938217889    2.22347265425260    2.08238800171099
C        -4.52135337272926    2.52963469243534    0.75654039933905
C        -5.36236176569888    2.46414953983490   -0.48228645992220
H        -6.13851206081397    1.70817796791738   -0.38226525572904
H        -4.75418341095695    2.23405108983741   -1.35371244185195
H        -5.85118268547710    3.42405657521067   -0.65288446794399
C        -3.15096694483692    2.72666229617651    0.67537006336453
H        -2.68804013151868    2.82515008717133   -0.29589210414040
C        -2.36153753320619    2.79874658121896    1.81290045903564
C        -0.87354829253330    2.93004266501795    1.72441835892881
H        -0.54936675502136    2.96888286472152    0.68848137881543
H        -0.41380130952899    2.06630707221334    2.20769217162500
H        -0.52234833209930    3.82849949361519    2.23018597442514
C        -2.11229207003232    4.20512812424339    4.81382230587450
H        -3.09963476998628    4.52526309103761    5.15964571979643
H        -1.76365653640655    4.92468209048275    4.06662547999896
C        -1.12495181043273    4.01183068524364    5.96504239432290
H        -0.19046046218733    4.56552282001765    5.81957247577725
H        -1.54555606298092    4.29330494910659    6.93383245664188
C         0.08128395640383    1.96117592889144    6.76917261905272
C         1.39075611536447    1.77518520634462    6.30738022294913
C         1.85530928190333    2.37259829037348    5.01331559476466
H         2.24727110105333    3.37393099928874    5.20353490649033
H         1.04981986573155    2.44286957498979    4.28696976894046
H         2.65005882201819    1.77023108476518    4.58496370573919
C         2.29648746338161    1.11884975839160    7.12692436557646
H         3.30137510566163    0.95584594309672    6.76852983002803
C         1.94226072852879    0.67832588483777    8.39387113195336
C         0.67338704162410    0.97350794299689    8.86886582601744
H         0.40318213320171    0.69231911684013    9.87713800324205
C        -0.26522678223987    1.63033358599598    8.08433002207146
C        -1.58212065700962    2.02745427210640    8.67766494457656
H        -1.86393538367884    1.34040071670737    9.47147732244289
H        -2.37101179746772    2.02566200633211    7.93112567229410
H        -1.50117461461189    3.02753660116715    9.10831769235102
C         2.92104350399422   -0.08181000096956    9.23497083303923
H         2.68168930282104    0.00766935921562   10.29202213274177
H         3.93411395507486    0.27603610037620    9.06662340845774
H         2.89122743719379   -1.13802451084023    8.96627923709567
C         0.92370769786006   -1.84091845723612    3.17440414870017
C         0.10044007987696   -2.57079640739401    2.29811327906400
C         0.36045654445275   -3.91956101563666    2.08843565714408
H        -0.26427190227018   -4.46546505023425    1.39655100332557
C         1.43943333364326   -4.56681976046766    2.67917757710420
C         2.30229381674579   -3.80865208680842    3.46253657984626
H         3.17651780354672   -4.26952964725344    3.90049606666669
C         2.06664015026798   -2.46200763883674    3.70643082521737
C         3.09170981964432   -1.74026734498144    4.48335851231529
C         3.53721534951298   -2.23843163523486    5.70456280393400
H         3.05785908609799   -3.10805375710321    6.13351590119804
C         4.58828692934337   -1.63452848710324    6.36931191463223
H         4.92926694112079   -2.03482864200005    7.31356139980740
C         5.21326355073072   -0.52727148836363    5.82063076684238
H         6.04276375032937   -0.06222547338101    6.33437173572894
C         4.77192868369344   -0.02048524591778    4.60903721075814
H         5.25927396903799    0.84178552072463    4.17564236497653
C         3.71698983749858   -0.61979653717371    3.94539602496906
H         3.38166974169813   -0.23640775754005    2.99348118699865
C         1.67108299677979   -6.00006778970422    2.46182285854176
C         0.60092498063140   -6.89244529792950    2.44723034487101
H        -0.40171111546668   -6.52255050291090    2.60808884718572
C         0.81200240886399   -8.24385346699444    2.25018075891968
H        -0.02781767941845   -8.92394337533218    2.24592067341475
C         2.09566438535321   -8.72779375630661    2.06090903448792
H         2.26027841620681   -9.78381598315934    1.90494448860763
C         3.16690658189988   -7.85014459954002    2.07118541342837
H         4.17020838195495   -8.22135244675997    1.91859429073026
C         2.95799537151951   -6.49870324246089    2.27191952266130
H         3.79658142103273   -5.81752496129581    2.26036838804371
C        -0.97711183881768   -1.96291764851888    1.50046699764913
C        -2.16766658185462   -2.65164637722557    1.27483905308970
H        -2.35190390997169   -3.58760585235017    1.78366414927155
C        -3.12903353013954   -2.14227831967946    0.42308490872226
H        -4.04609428997935   -2.69129701794681    0.26423056112853
C        -2.91575838162078   -0.93884300363578   -0.22656863150553
H        -3.66640392950644   -0.54151203633042   -0.89418475215157
C        -1.72953779716574   -0.25540445663730   -0.02439583163968
H        -1.54313411976698    0.66906432029984   -0.54835770437392
C        -0.76818654905788   -0.75949394039993    0.83003307357672
H         0.16578887126824   -0.23482155282488    0.95781322764395

