55
CSD_code = CEXCEO | q = 0 | S = 0 | Stoichiometry = C20H28Cl2RuS4 | MND = 6
Ru        4.20055998921792   -0.00015147997661    0.00004996945030
Cl        4.55847882702621   -1.27839734320472    1.97810961055274
S         3.49711918809866    1.82181623308044    1.38860601868054
S         6.53319711710202    0.54796393505243    0.01720577349494
C         3.67051272478152    3.43437427724290    0.58054624900713
H         3.02694780530230    4.14600302130817    1.08952112081764
H         3.34109357327156    3.28633773711071   -0.44490383983518
H         4.70230158676713    3.76925335007079    0.59795184025211
C         4.56350457686489    2.00137059674850    2.88614333024002
H         3.91337686101719    2.44256945187833    3.64201344281589
H         4.78265365199242    0.96816123661048    3.15818310810210
C         5.78089029127676    2.83517351869327    2.69147042261447
C         5.71989420919044    4.17720680884196    3.06198759185740
H         4.80233848789216    4.55971558226886    3.48569989251319
C         6.80143379981563    5.02244806502811    2.90387528109399
H         6.72522637069392    6.05824690531385    3.19764531049874
C         7.97896566125126    4.52999395119156    2.36838574976362
H         8.83330462965831    5.17669067298312    2.23849496649212
C         8.05573621896450    3.20022827646814    2.00094397442748
H         8.97710757179425    2.81364621299324    1.58938641117695
C         6.97223079102506    2.33679716233229    2.15109185174747
C         7.14209090398407    0.92222195166291    1.72036278430685
H         6.59468349524150    0.21059556855042    2.33962590071107
H         8.19774551581519    0.65001334591022    1.70672668493246
C         6.90780946728107    2.07474951813448   -0.88379012541087
H         6.65617747014386    2.94800288199198   -0.29120454052216
H         6.29740165959821    2.04275988564543   -1.78287516464937
H         7.96359906449119    2.07440341283948   -1.13869795061672
Cl        3.84342026475413    1.27792293602516   -1.97832578783238
S         4.90424181469528   -1.82192738129758   -1.38882485459514
S         1.86801039722989   -0.54801343559248   -0.01740382351140
C         4.73016142719073   -3.43436646368908   -0.58065363910260
H         5.37236802177483   -4.14664283014206   -1.09044165487966
H         5.06101026690143   -3.28668919940168    0.44438213297288
H         3.69802634356933   -3.76825454577850   -0.59670500016789
C         3.83756591797150   -2.00141283388816   -2.88619822537375
H         4.48758503998361   -2.44257768870043   -3.64218371435560
H         3.61840799324321   -0.96818702204001   -3.15817170250989
C         2.62017087970194   -2.83521668716249   -2.69150185188510
C         2.68114056428274   -4.17725643232193   -3.06200405254860
H         3.59867346569953   -4.55978124118302   -3.48575036994947
C         1.59960265335490   -5.02249340527585   -2.90383823715528
H         1.67579904345299   -6.05830541608016   -3.19756525634862
C         0.42208100824686   -4.53002658382007   -2.36833847575873
H        -0.43226125343202   -5.17671211747343   -2.23840577990004
C         0.34532365818275   -3.20025011547933   -2.00093648437561
H        -0.57603540610700   -2.81364847223304   -1.58936791228626
C         1.42882901361841   -2.33682665439887   -2.15113759174564
C         1.25893845711151   -0.92224542862153   -1.72046743981587
H         1.80627347972410   -0.21060127393439   -2.33977531468191
H         0.20328031053748   -0.65007248406870   -1.70668422734154
C         1.49311120036536   -2.07446781369401    0.88404029737819
H         1.74314493250406   -2.94792009020815    0.29107179673180
H         2.10461529009735   -2.04312643057233    1.78240915915375
H         0.43763370578428   -2.07309562573331    1.14022234536953

