70
CSD_code = CEXCOZ | q = 0 | S = 0 | Stoichiometry = C25H32BCl2N6O3V | MND = 7
O        -1.46004809185131    4.93396702930793   11.26129438869959
C        -1.25577824726883    4.13822514870315   12.40018628278648
H        -1.63587519980703    3.11894557632174   12.22469705077980
H        -1.83310652042661    4.60070666948809   13.20302619388052
C         0.22744959689551    4.07125551839153   12.77902059610749
H         0.57232578562245    5.09240835413700   13.00555264881029
H         0.34988109788324    3.44193872661407   13.66292901018933
C         0.74919389362014    4.28610681492127   10.45044772917469
H         1.23922187246046    3.78829828547350    9.61172265413870
H         1.18396227833090    5.28750934184959   10.59682605430921
C        -0.73952870022101    4.43586371295643   10.15270418936987
H        -0.88593856989418    5.15798844533482    9.34856036992196
H        -1.15581909967786    3.46901462862948    9.83476885704364
N         0.94940644386410    3.48858101693388   11.66189555932985
C         2.26415437390136    3.07567039540408   11.87057672126446
C         3.01007088737789    3.46914748909377   12.98827965178729
H         2.57643619686837    4.09078379246324   13.75358162656451
C         4.32752569379072    3.06635684341074   13.08852511381649
H         4.92123157253125    3.35846676185568   13.94193354197898
C         4.88008461305630    2.29828758565907   12.08069149474579
H         5.90231478634756    1.96446332404637   12.14038027696589
C         4.06098654029120    1.90397608119036   11.02303843949991
C         4.52161235704980    0.98861912485372    9.97943374301963
C         5.85456368647249    0.85189405056215    9.63287753266205
H         6.60009219087704    1.47912535227674   10.09504306430897
C         6.22959081895955   -0.08482686321750    8.67169407398113
H         7.26508656880686   -0.19875789946119    8.39292428194216
C         5.24772124860974   -0.86108308580671    8.09458255763737
H         5.49380443562824   -1.60820759299410    7.35682478900241
C         3.91827338637302   -0.67144070249235    8.47137928183303
C         2.77048304388774   -1.33875722364414    7.92883571147596
C         2.73609503647637   -2.25447105418588    6.87199442334386
H         3.65403220989611   -2.59018461861996    6.41586627547298
C         1.51237361788058   -2.70160077577719    6.42959333536691
H         1.44732316887159   -3.41032204408845    5.61758198204357
C         0.35318680269688   -2.21885790263398    7.03913948501807
H        -0.61572144443820   -2.55171585146055    6.70635844241703
C         0.43633313337942   -1.32386598105779    8.08934167692243
C        -2.84226965339883    0.35400193159725    8.82756387025991
C        -3.05886360418151   -1.19554533952897    8.86320835852761
C        -3.63836068291786    1.09447199845898    7.75469832562522
H        -3.48073262240006    2.16463318654968    7.86755757562852
H        -4.69899773806318    0.88026818860010    7.85613039040842
H        -3.30231033996492    0.81074867267309    6.76336564532741
C        -3.15805753329053    0.98625066208678   10.19552658455848
H        -2.64724070801304    0.45075270191556   10.99400885146001
H        -4.22722588196096    0.96154400602220   10.38512047884801
H        -2.84079084460732    2.02821347867474   10.19426334619627
C        -4.19166742125950   -1.67131116194513    9.77200550850112
H        -4.30251434419879   -2.74652340420598    9.65829522057622
H        -5.12567104253942   -1.18925262137622    9.49532425908455
H        -3.97144117044953   -1.46717370350911   10.81494036267637
C        -3.29000548490187   -1.75688033906254    7.45224397128887
H        -2.55353552483448   -1.34802294153172    6.76609200099043
H        -4.28917486619337   -1.51933568220100    7.09861948915024
H        -3.17354986948844   -2.83771343278738    7.48867422051607
O        -1.45391812384090    0.48177437557083    8.55308668854938
O        -1.82388362066680   -1.68182855770240    9.35877613292018
B        -0.78610678332475   -0.73875098444065    8.99336441925212
V         1.76292407646750    0.42129780950083    9.85527728096869
N         2.77981072732843    2.26996658678204   10.94009042360052
N         3.54844225142515    0.25097885333185    9.40063790348678
N         1.63813654444085   -0.92254127103236    8.53239303245470
Cl        2.38668884715250   -0.39903210038838   11.98003114070015
Cl        1.51505087272235    1.94152658871258    8.20428211744799
N         0.09365265417798   -0.32881900654388   10.27342270456032
H         0.07545534499258   -1.01630156923905   11.02732129631496
N         0.10753081440090    0.95528320951627   10.66499514934072
H         0.03483095181179    1.14411041720298   11.66653187438402
H        -0.51460668960753    1.51520097388561   10.06354226876844

