119
CSD_code = CEXGOD | q = 0 | S = 0 | Stoichiometry = C52H58F3IrN4Si | MND = 4
Ir        3.09155444667604    4.86930132834609   18.63012722165080
Si        4.72932638192601    2.14816268295780   17.12757789379052
N         2.64892034201891    5.80973050733773   16.85977987317497
N         1.86259167311345    6.13998956607121   19.21022739199180
N         3.15178549812753    4.51522189384897   20.62390659251968
N         4.47886520849926    3.47850849063615   18.16600714781363
H         5.04119460152260    3.34244725651680   19.00432093251522
C         1.47333426089457    7.79720435911445   15.92038810209211
H         1.95327642355150    8.75045615885555   16.14636916880650
H         0.40038494257157    7.97210784461524   15.86630800417665
H         1.83020395665154    7.45447320861530   14.95339497515584
C         1.79565647972964    6.80666287996754   16.99946925152841
C         1.26909649887282    6.98911943963605   18.32046461075305
C         0.34314965917672    7.93480153311730   18.75457082568428
H        -0.13083477831354    8.59695826242146   18.04845585295058
C         0.04198548710568    8.01852409277083   20.10662749045286
H        -0.67781377138423    8.74294602778914   20.45473664898579
C         0.67750763520253    7.18156545953079   21.01338387600314
H         0.46245666396605    7.25363646870176   22.06707590388192
C         1.59724801416151    6.24547341275890   20.54641895366048
C         2.36575014055303    5.31320526895752   21.31823409583906
C         2.26676642610853    5.30912344348341   22.81263199933682
H         2.96789309777407    4.60258221897735   23.24892994306351
H         1.25567491494073    5.04360320661236   23.12046097182169
H         2.47875110972896    6.30510003897442   23.20100683059567
C         3.30220081502197    5.67532424286265   15.61004889223995
C         2.78074365650647    4.80670059503999   14.64142175417714
C         3.41288586822516    4.73720447310336   13.40854203841907
H         3.01811891760015    4.09421215590540   12.63909524075025
C         4.54012812643358    5.48911818522412   13.14214925983728
H         5.01298706602037    5.42777467198909   12.17352363105436
C         5.05667586155228    6.32703167174299   14.11113936552059
H         5.94075343345985    6.90330527260951   13.89024225539460
C         4.43905709450864    6.45308776687352   15.34559021653886
C         3.96405044700560    3.57848105507970   21.30643706216780
C         3.43359628159561    2.35447649216011   21.73777489936853
C         4.25304526385669    1.48738731079983   22.44735192662225
H         3.85390316539775    0.54829508691702   22.79832082285089
C         5.56951363556112    1.80712110189305   22.71616853489152
H         6.18708557580297    1.12912185880412   23.28590896089143
C         6.09786848751515    2.99188607342033   22.24114893936649
H         7.13214217061405    3.22534238165891   22.43740466153689
C         5.31517311842717    3.88765582871289   21.52826305865741
C         1.53039770892361    4.00594323663812   14.92805377202718
H         1.52663112172226    3.78442888231404   15.99948886217296
C         0.26777112221284    4.81030065294824   14.59584803934574
H         0.13759854340588    5.64152784115762   15.28058120455622
H        -0.60637151456722    4.16747309568359   14.67456640696054
H         0.31957750370237    5.19729443642041   13.57982928167246
C         1.48552217274577    2.68136647551519   14.16913448452903
H         1.28031798972308    2.83864918511460   13.11273531314168
H         0.69497556862512    2.05439094106801   14.57542407852202
H         2.42517801900139    2.15008629266486   14.27405145372629
C         4.98666297668722    7.40003184532483   16.39060146740862
H         4.19158744029034    7.62957073092707   17.10627115207547
C         5.46543339210478    8.72365809734065   15.79221476603692
H         5.66686694569503    9.43723743039732   16.58886075890749
H         4.70933420981725    9.14580102656396   15.13346611613957
H         6.38233266591100    8.59213338964402   15.22413204205295
C         6.11346676685021    6.71207377879687   17.16317659863767
H         5.73583410453394    5.79465049785492   17.61310455791419
H         6.48433014024133    7.36773704930702   17.94853815794260
H         6.93547396089167    6.46767073835917   16.49489235540643
C         2.01282108324102    1.94900805146896   21.42023687496815
H         1.55051678718027    2.73513716390255   20.81484124208616
C         1.18470029018818    1.76267565139391   22.69420725201967
H         0.15339673133966    1.53206676459246   22.43635350918977
H         1.19477540224169    2.66182637195272   23.30485755626479
H         1.57685183299111    0.94305284469749   23.29140250824218
C         2.00755733582706    0.65805086297729   20.59737702523600
H         2.61892149246906    0.77071314531459   19.70577411007396
H         0.99364227760510    0.41685435562147   20.28650108355085
H         2.39306294596105   -0.17641318127763   21.17779274867274
C         5.90181302639399    5.18669660329016   21.02428650720765
H         5.22241117790518    5.59790598404207   20.26622316540696
C         6.01106647780569    6.19686918853382   22.16919828052236
H         5.03267511353445    6.40087272074536   22.59745204228925
H         6.43045866271125    7.13277802799148   21.80675563111878
H         6.65600423803772    5.81156970176432   22.95636442727644
C         7.26388540183369    4.97709611241749   20.36101955929310
H         8.02549445775495    4.71401285950503   21.09058541601641
H         7.57705025948391    5.89319717405483   19.86612940553051
H         7.20909694946861    4.18550852083750   19.61699282958437
C         5.97857976321097    0.93916170562909   17.90393229235196
C         5.88874104433268    0.61366004133178   19.25272014628349
H         5.10654418869547    1.05692266600373   19.85108128609922
C         6.78002998981831   -0.26266067124541   19.84376093071636
H         6.68826723329079   -0.49629874368663   20.89511549527204
C         7.78685514720862   -0.83875201862624   19.08809942178447
H         8.48605263758641   -1.52529158394236   19.54414916275732
C         7.89222848301004   -0.52927763937184   17.74276042246147
H         8.67593426677253   -0.97464031649010   17.14575803233889
C         6.99634595718981    0.35061951177875   17.16193434235158
H         7.09185245751107    0.58957729147658   16.11156858399983
C         5.52454096364190    2.61358992785277   15.45848166051309
C         6.56412804019438    3.53579685835406   15.45438040172877
H         6.85365295476445    3.99403505110314   16.38580574741847
C         7.23441399043748    3.86755166298101   14.29423448626980
H         8.03900301874976    4.58784399753489   14.30426906478435
C         6.86353816867470    3.26460057647610   13.09993705658926
C         5.84591962050081    2.32141349500150   13.07972262346234
H         5.57159222234494    1.84573961751041   12.14963553991641
C         5.19125566854530    2.00567783985380   14.25545738349832
H         4.41076358677046    1.26029975014735   14.23302179162048
C         3.12402992974372    1.15967430387885   16.86715593092574
C         1.92224917348065    1.64077833323133   17.37155410146461
H         1.93022591939669    2.58938691313652   17.90328408414008
C         0.74165831602424    0.93686013361166   17.22162213040420
H        -0.18308020760089    1.33489509516586   17.61681228172995
C         0.74636584327456   -0.28341733166810   16.56663389023647
H        -0.17229533750287   -0.83980431308853   16.44422302402089
C         1.93777698740532   -0.79292728727633   16.07850858031293
H         1.94961557871557   -1.75200430966904   15.57965397965734
C         3.11275221018542   -0.07841435047773   16.23268709924563
H         4.04035072296112   -0.49595565473783   15.86515356061751
C         7.58214176127012    3.61464111897332   11.83428402984106
F         8.65010168382340    2.81923196511768   11.60471313406977
F         6.80674087812675    3.50777629111214   10.74050964551421
F         8.05795005570261    4.87287424954890   11.83005053390966

