35
CSD_code = CEXGES | q = 1 | S = 0 | Stoichiometry = C7H20MnN4O3(1+) | MND = 6
Mn        3.33824141949535    0.73805579872677    2.17218669358550
N         4.81985734315327    2.13654751927289    2.27170984956421
H         4.63969487628806    3.00138678325838    2.78868738433714
H         5.06162716825733    2.42854642206347    1.32255157181965
N         3.64859303282437    0.03606499559397    4.02529203626135
H         3.17337557981311   -0.87556916225035    3.92122768037910
H         3.23592930233160    0.47496519374182    4.85487708674134
N         1.86346814510987    1.94230836720235    2.97090108355806
H         1.93909559805178    2.94619149290209    2.76283814834230
H         1.83171062607489    1.89321028763321    3.99280966225923
N         2.63289691282317    1.46758031251293    0.38972406950514
H         2.79522500223646    2.44942995329114    0.13389977385408
H         3.16372025656950    0.90774880583629   -0.29261324798930
O         2.34202445173829   -0.88858612612557    1.96776289904753
O         4.36481507131897   -0.40431855135806    1.44610013396582
O         3.11622762609096   -1.40123565789205   -0.07948925732032
C         6.06271334439537    1.56236064750671    2.82843637493369
H         6.86152342529969    2.31104576874459    2.80545460890034
H         6.35248258482349    0.72457063301724    2.19225986235769
C         5.87950661946191    1.07425864962269    4.26142228016097
H         6.86513945606833    0.88202525228712    4.68385910257246
H         5.40362038499988    1.85212318328751    4.86511698272610
C         5.06621783332275   -0.21517825483827    4.33681660322205
H         5.45736222007148   -0.93048081017145    3.60848585142906
H         5.16152237538781   -0.65029747930360    5.33821019475424
C         0.51574583267875    1.52865128575931    2.50415843661715
H        -0.25651008860020    1.98836090994383    3.12954856368187
H         0.44834143945808    0.44234466509330    2.59114289225658
C         0.29847926506385    1.94003009540927    1.05488144019149
H        -0.73468469048057    1.72896741439058    0.78273107145594
H         0.45792193348917    3.01735706993770    0.94414184306930
C         1.21172190249477    1.17214756251110    0.10878018667250
H         1.05703606030812    0.09765119051676    0.23382450570515
H         0.97038366448127    1.42967814821875   -0.92799296505877
C         3.23247402509927   -1.01144236634276    1.06395659644172

