59
CSD_code = CEXGOC | q = 0 | S = 0 | Stoichiometry = C23H28CoN3O4 | MND = 5
Co        2.14624055055965   17.54129049739183    2.35596512556589
O         0.46436517259392   16.90287350714460    1.78745020840397
O        -1.25869862080746   15.91583074489084    0.90499821030736
C        -0.11202285386288   15.85883958860781    1.31336015260013
C         0.63944070625767   14.52556456090779    1.29064242723858
H         0.18005872546466   13.87770164471465    0.54927756838420
H         1.68811123651259   14.67532949302501    1.05882989963241
H         0.54897025652964   14.05983368713614    2.27039736046735
O         1.22703680212228   18.23699574893988    3.86827241303137
O         2.98090964515856   16.84347212995193    0.78833170834357
N         2.56825344839606   15.98647020685315    3.35213217408042
N         3.96672868432746   18.42457864028098    3.01020550908055
N         1.75544238483020   19.11409405794164    1.36227778477037
C         0.47611243389143   17.52573493090307    4.63057461352735
C        -0.58740871439509   18.13690138796332    5.33794105455388
H        -0.76668330386403   19.18729107190416    5.16369498898539
C        -1.38627847224705   17.41788005324024    6.18685191868876
H        -2.20672287501212   17.90825380258096    6.69130169497435
C        -1.16163984483205   16.05562719802149    6.40718329470337
H        -1.80345689148455   15.50285711128910    7.07566357863187
C        -0.12106331613950   15.43580792537458    5.76596312658121
H         0.06989132998345   14.38338726881600    5.92812580632480
C         0.70855321725171   16.14009932791399    4.87886796602419
C         1.83279461812164   15.50206823183460    4.29254240185592
H         2.11018619013999   14.53421310924412    4.72236260677118
C         3.79720678530880   15.30445586097407    3.02609725452120
H         3.85618060056055   15.18321374728703    1.94289433135767
H         3.83276085736555   14.31687967803801    3.50455130114547
C         4.99211954938027   16.14115045421745    3.49135066657357
H         5.90811267824453   15.59081687085737    3.26591377087905
H         4.94616232110687   16.27400790713943    4.57387742784866
C         5.08175730728330   17.48629979934739    2.77365442520828
H         6.02350659399296   17.97423016093504    3.07208187697972
H         5.11851998406337   17.28906195628903    1.70052960653966
C         3.94993517946401   18.81192701910113    4.42267661121355
H         4.90528329461013   19.27200749317330    4.70587585593354
H         3.14068409725085   19.51164374211644    4.60450116136497
H         3.77001275910637   17.94508250700627    5.05190974965438
C         4.25722655844263   19.62037600624487    2.19613292292104
H         4.30865424288623   19.29832251518054    1.15325961483087
H         5.24879072884024   20.01137054768507    2.47716571536183
C         3.25849917122577   20.77827957096695    2.30293534509839
H         3.54641080811471   21.49482402303009    1.52980255601725
H         3.35628868295607   21.28320036110237    3.26400320455258
C         1.78953756950125   20.35498824127076    2.08936028234368
H         1.30024136588366   20.18945480278811    3.04995882260521
H         1.25095222056774   21.14341397159793    1.54932563839568
C         1.43544060020957   19.12281547801826    0.12021730522396
H         1.05601130551503   20.04981735029022   -0.31916198451471
C         1.62663781770181   18.03704256312154   -0.78108071673459
C         1.09799234053715   18.08494006130588   -2.07721246648825
H         0.45520244720826   18.91236036395592   -2.34312049731264
C         1.37248974549949   17.09968460224997   -2.99309643569053
H         0.94664265623248   17.13615987982853   -3.98376411884067
C         2.21479589267716   16.04809376595854   -2.63197034483139
H         2.44082740628363   15.27399173826542   -3.35155595805872
C         2.75371742026043   15.97694180219465   -1.37206031043166
H         3.40205632525356   15.15784803528578   -1.09508998317004
C         2.45522217696622   16.94710119630612   -0.38967622402633

