101
CSD_code = CEXHAQ | q = 0 | S = 0 | Stoichiometry = C43H43AuB9N3P2 | MND = 3
Au       -0.60849407507921    6.06373095085431   13.10172632010723
P        -0.22003768457641    3.41532141228602   14.54950362031052
P        -2.52483125897191    4.97216612357081   13.65592113688969
N         1.74515643963043    8.08496778832617   13.19896462543437
N         2.17881548024591    6.36565437258357   11.99369585205437
N         1.81575388418586    2.71973385960666    9.90892392767881
B        -2.22179471474923    5.31194106645089   18.03230545807350
B        -1.51877045897072    5.33963073174671   16.42071986203035
B        -1.05300789831843    4.10132215600393   17.56617566779179
B        -3.23260781067926    5.65932227870686   16.61430620404800
B        -4.07791922979300    4.15681046774170   16.14580838092293
B        -1.85566066104361    2.59234087889167   17.03875544699215
B        -3.75232137004658    2.89432011066298   17.32293557178829
B        -3.84257281523699    4.58849404504240   17.85729181359383
B        -2.48755433060301    3.56997206872478   18.43892582127458
C         1.20117980376843    6.96290655301338   12.69893634746666
C         3.05172757776118    8.19656058114037   12.80455266192190
H         3.66887838871985    9.02244178996044   13.09142908179438
C         3.32677158822252    7.10918023927906   12.04480028509427
H         4.22188505313188    6.81378484276027   11.53784592395762
C         1.06876205052324    9.03211539510656   14.03904169000136
H         1.08066443736949   10.02298146833526   13.58087438320656
H         1.55397825389232    9.08826037986088   15.01566284007281
H         0.03752214205029    8.70783228136904   14.17383173551104
C         2.04324251957387    5.13650258943925   11.30273932384326
C         1.12286120402801    5.02447570637390   10.24833341646167
C         0.29625320563409    6.07767063008923    9.79624242685928
H         0.37378928478092    7.04971563898956   10.26210843614635
C        -0.59157608920440    5.87916219074192    8.77565501807370
H        -1.22226949841311    6.69115991883676    8.44533895055402
C        -0.68773340443041    4.62879869662678    8.14309954023325
H        -1.39760924458583    4.49684178918485    7.34012160180790
C         0.11862973890168    3.59588758422259    8.52744208765577
H         0.08149429639491    2.63443889953348    8.03984812852199
C         1.04600631099065    3.75439205403120    9.58412753068551
C         2.68638794089714    2.83622531879353   10.90750566096669
C         3.49357705488055    1.71991319824726   11.22957668964242
H         3.37750722937399    0.83523995618318   10.62400781822851
C         4.36920172161747    1.76937996985902   12.27691554733055
H         4.97335313382237    0.90916700856519   12.52463585846994
C         4.48627457234433    2.93533536450595   13.05190888403211
H         5.16402109916093    2.95088953535213   13.89233664506801
C         3.74900036388811    4.04711795360131   12.75337713423640
H         3.85038689477485    4.93495316961711   13.36022863455870
C         2.83816988840159    4.04006343712383   11.67384719263487
C        -2.67091005544611    4.49215588549651   15.41224290105115
C        -1.44738196139724    3.69383415995864   15.89563625498420
C        -4.04423567043269    5.91377377288820   13.30185246820489
C        -3.98425248357376    7.27550056197173   13.59080751007455
H        -3.06752901844431    7.68395496878823   13.99993891894941
C        -5.07395964266629    8.09257594342327   13.36609289187806
H        -5.02241491532848    9.14408332912943   13.60875338520622
C        -6.23302095359745    7.56020994363148   12.82374176582741
H        -7.08798065312733    8.19547532340701   12.64560673709724
C        -6.28821301526274    6.21552616945883   12.49997309067140
H        -7.18571844620938    5.80171863835719   12.06351654445434
C        -5.20020147580709    5.39279862633403   12.73401161694633
H        -5.25355954489978    4.34688482993701   12.47017897410701
C        -2.74978463303870    3.41588956134231   12.73896439428631
C        -1.90133906636979    3.14889486429205   11.67032543621047
H        -1.13225365115355    3.86691995112917   11.41189148025438
C        -2.02699218523699    1.97709269333714   10.95012028463182
H        -1.34583701936656    1.77404066392801   10.13804790183496
C        -3.02024589322096    1.06965567377944   11.28006803232625
H        -3.12348732127438    0.15429800231247   10.71664817685177
C        -3.87421723321218    1.33112491863191   12.33856670168087
H        -4.64589640563378    0.62110577465591   12.59930945163638
C        -3.73460806711833    2.49259256811398   13.07762651848909
H        -4.38019137316766    2.68177802351876   13.92442489984514
C         1.36382118814625    3.47907859998367   15.47097337342932
C         1.92749920669921    2.38919141552449   16.12610899114486
H         1.42641141473751    1.43267860684792   16.10756482574496
C         3.12372196392938    2.52843297717814   16.80417460493484
H         3.55308568527779    1.67632280693306   17.31123364422133
C         3.77001441320443    3.75310271345389   16.84459295921935
H         4.70379309266541    3.85670032024187   17.37800874036858
C         3.21161587185430    4.84559665097273   16.20320381056557
H         3.71000839758115    5.80520899151673   16.23573785357030
C         2.01969992588543    4.70525795782765   15.51847976204896
H         1.58186163812028    5.55564401547221   15.01035441109526
C        -0.27079819840461    1.62686125384944   14.15840232331500
C         0.82765342614115    1.15115285261641   13.44207382632083
H         1.67579853183289    1.80465890147012   13.28594722058519
C         0.84783291529422   -0.13543923217729   12.94625172718350
H         1.71198712535359   -0.48632483683598   12.40160583108018
C        -0.24283238245262   -0.96845144961164   13.14166281199779
H        -0.23243049606016   -1.97677227020289   12.75423206350755
C        -1.34758681371738   -0.49850513138033   13.82860211031504
H        -2.20491924954708   -1.13945823603811   13.97744636441094
C        -1.36890457428130    0.79333686447432   14.32419082891172
H        -2.24653673013301    1.14253872130694   14.84403654676055
H        -1.97443757024286    6.14460836800685   18.82795265549584
H        -0.77663748030961    6.10870727067097   15.90976164260204
H         0.07002677818817    4.00075590101255   17.90625614676027
H        -3.66372504348448    6.70041322228759   16.26875662906614
H        -5.07903275848857    4.26063676299281   15.51843212671203
H        -1.21976852588974    1.60304838331562   17.16319300933936
H        -4.53143227301891    2.11269207893783   17.75108512887680
H        -4.75777531883094    4.87351137590562   18.54248612461755
H        -2.40164711722200    3.18959481911704   19.55229321623226
H        -3.02222737216475    2.20291202440856   16.53572116794556

