40
CSD_code = CEXHUI | q = 0 | S = 0 | Stoichiometry = C12H19BClN6Ta | MND = 7
Ta       -0.00295875761737    2.14007343532768    3.47409464019806
Cl       -0.16747213394175    0.08296119169111    4.46457426438501
C         0.55180354632450    2.21765460573981    1.23877218472906
C         0.71887341545827    3.91247408727306    4.75778286823842
C         2.25610198369173    1.68616566954524    3.58599575589333
N        -1.25411381936292    4.05319850063973    2.61475286291922
N        -2.58271188097878    4.17505176649264    2.62425797808837
C        -2.93209397739422    5.34572007936175    2.07616788887572
C        -1.78372822207265    6.01146119706150    1.69512479700524
C        -0.75386311264915    5.14941756940002    2.05900362849870
N        -1.97013109719392    2.55138576901881    5.07378354000750
N        -3.19721985341669    2.87627963759678    4.66529869636900
C        -4.03035212402949    2.90966475735083    5.71563278532608
C        -3.31153632203686    2.59392500240688    6.85045951247297
C        -2.01538651182155    2.37570361940182    6.38592402772297
N        -2.11026693825398    1.23113218773539    2.31446842040553
N        -3.31269280331406    1.79686064917071    2.42612193690052
C        -4.23307088742073    1.02715559147371    1.82701332152421
C        -3.59895604858373   -0.08197629375087    1.30559070904689
C        -2.25872399147342    0.09819118736031    1.64432974913810
B        -3.53580032129272    3.10956786365120    3.18747653726385
H        -4.65919873152922    3.46501635248133    3.07430132250448
H        -3.95941549733307    5.63534508536064    1.98898601335347
H        -1.70642977961142    6.97081768052371    1.22720201683134
H         0.30607539635499    5.26631849471439    1.94787155424014
H        -5.06681087490137    3.15202147817354    5.59644368636463
H        -3.66882369415621    2.52951794025477    7.85737949852650
H        -1.13214309234129    2.10301351360931    6.93155793893811
H        -5.26627086883450    1.30871825603865    1.80672967260156
H        -4.03727584248200   -0.89587955245718    0.76600898287512
H        -1.41293966765837   -0.52974907167935    1.43818560229479
H         1.47874572756129    4.50780094775029    4.25311969014163
H         1.15970925077357    3.57314969605225    5.69499200729436
H        -0.09192723439755    4.59127324489415    5.01818712442862
H         0.92664630801585    1.25637017356364    0.88722710492774
H         1.32889558997334    2.95141901197990    1.02813184093914
H        -0.30110503312019    2.47198004987126    0.61109309587934
H         2.89144607749301    2.47321917424803    3.18204218235004
H         2.49721506815658    0.77307077294796    3.04273142642396
H         2.56920675541553    1.52380867772402    4.61678313407666

