35
CSD_code = CEXHOC | q = 0 | S = 0 | Stoichiometry = C14H12BClNO5Re | MND = 6
Re       -0.31540607754873    1.95230759455843    2.01190709448630
O         0.97211876660782   -0.87662391788623    2.30278088308054
O         1.24229692348510    2.38355638386811   -0.65331971258939
O        -2.69999767739014    0.74291939554714    0.41221416537876
O        -1.78588208159892    1.84818524544114    4.74353665818443
O        -0.53157818669774    5.04943936216735    2.07658325543109
N         1.57036480390060    4.15977836329426    3.14860194347530
B         0.92388355338669    5.29287300334565    2.31902502806096
Cl        1.71648407860601    5.20545318712986    0.63397086411013
C         0.51164049965289    0.16314259455234    2.19631144271643
C         0.69146819464643    2.28216873312832    0.33291105193387
C        -1.82831018912734    1.19890750724686    0.99282487885600
C        -1.26210922064291    1.83070472715972    3.72902234522124
C        -1.13838901546962    3.96044452688476    1.88619346728083
C         1.32097111932330    2.89510275984594    3.15982063778055
C        -2.59038593735305    4.19514176372076    1.55823588433840
C         2.22423790168772    2.07640972456917    4.03294772080308
C         1.09801357041524    6.69707265812150    3.07401095561237
C         1.53391714792562    7.85557778954323    2.43821851598783
C         1.65473328209398    9.05079433748216    3.12514660863684
C         1.33659622720352    9.11441976408157    4.47025367013272
C         0.89565620061092    7.97559688573232    5.12234150010158
C         0.77951019035080    6.78440902368554    4.42952368268082
H        -2.75705725780590    3.89578233591546    0.52220480903047
H        -3.23165618415698    3.57400767605036    2.18268222727689
H        -2.85102018434554    5.24716332892603    1.67347211986863
H         1.63907001965429    1.45209157328934    4.70843578920166
H         2.80594214915827    1.40425738559535    3.40019935898641
H         2.91232757275839    2.69503664248988    4.61465612776491
H         2.35180243213202    4.49579756932526    3.71297254205792
H         1.78559359709381    7.81401755993005    1.38883493377876
H         1.99735789155294    9.93547419858128    2.60819747536851
H         1.42951295095635   10.04643981333191    5.00873368262901
H         0.64118127672775    8.01610610527623    6.17196018630297
H         0.42701166220553    5.90154439806907    4.94858820603535

