78
CSD_code = CEXJOH | q = 0 | S = 0 | Stoichiometry = C27H41N5O4Ti | MND = 6
Ti        4.70895023853801    6.27768624859388   14.38590939319799
O         4.90160280720634    6.22120452696186   12.50422444518684
O         3.02981017368340    6.83455933518774   14.20813669420165
O         4.34687129790001    4.67570217964054   14.99042935202548
O         6.47745853606959    6.22642633579699   14.65973204251353
N         4.34434519557071    4.55921420905022   10.53224072245336
N         5.31670852279580    5.21401973458333    9.95520997625726
N         5.94537765608355    4.60237296018788    8.97891544954190
N         5.23843894154815    8.41405620473688   14.21231466250268
N         4.41686786918319    7.08321908007994   16.54515724132704
C         5.44347856660326    6.98540460103591   11.64209245491483
C         5.67893475769514    6.51699822360785   10.30601728924235
C         6.28854824934320    7.28773762717954    9.33800721146614
H         6.44601461042044    6.85105078200930    8.36320948725332
C         6.69333029052026    8.59415133333003    9.60104383187605
C         6.47356248371642    9.08686979260530   10.86961320055483
H         6.77878823796184   10.09936224567967   11.09992162335359
C         5.87568577360457    8.33178440143595   11.88860391683575
C         4.31042966839593    3.38309707962076    9.88645814692972
C         3.48272994194319    2.26294674560839   10.02328044497105
H         2.70096588815990    2.24673041768649   10.76422869272147
C         3.71026303966064    1.20860820127531    9.17928091774905
H         3.09288063030083    0.32480496464450    9.25208696929375
C         4.72983623679774    1.23378304989761    8.20689042556762
H         4.85792948158989    0.36826915548570    7.57283159792902
C         5.54988100127144    2.31822489498039    8.04536152942385
H         6.32908260004442    2.34658771060198    7.30034805764336
C         5.33769935504678    3.41143542383760    8.89299262504902
C         7.35589392111704    9.41174129848537    8.53349666279449
H         7.38386887169182   10.46227237530047    8.81021243943330
H         6.82539051700020    9.31057730866868    7.58946499869964
H         8.37896305586162    9.07052644911924    8.37860256922669
C         5.75621093149464    8.94666506366850   13.17734248787509
H         6.17329086008372    9.96643235595932   13.24024631277183
C         5.27909566766051    9.12702172275540   15.45970061743779
H         5.08074140843690   10.20358790506851   15.32265269734899
H         6.28412912575121    9.02583492579772   15.89223381796750
C         4.23839265622971    8.52493776639233   16.40048556904661
H         4.28277083734982    9.03003381810433   17.38352979895764
H         3.25259999728537    8.69275486719522   15.95845091009994
C         5.55382210443495    6.78562956915669   17.40783308305411
H         5.45302559053370    7.28767341459827   18.38510790160977
H         6.47915812716445    7.09701317440412   16.92671523795963
H         5.60393023496982    5.70897985555035   17.56205097751493
C         3.21367920454273    6.51596528379398   17.14475082389236
H         2.99619395295561    6.98411105926602   18.11879948733332
H         3.35684864928561    5.44635009124312   17.28539780235281
H         2.37350611716593    6.66493042803428   16.46754283296412
C         2.21667930008008    7.45202921656747   13.28352038362019
H         2.78116682152396    8.26521410136227   12.77073291198521
C         0.99254613379339    8.09221580006241   13.97178842228271
H         1.30706245023130    8.85244855583569   14.68535893220297
H         0.43267452136001    7.32515076894995   14.50414995610166
H         0.34220623622582    8.55649480672821   13.23468096485763
C         1.73634886285442    6.45902632391835   12.21120732342373
H         2.59779483364179    5.98442546888867   11.74523040834399
H         1.15012599095526    6.97169343052592   11.45112938054090
H         1.12341147508800    5.68963183974782   12.67767871726023
C         3.24699842599494    3.85863464200315   14.80523485810603
H         2.32536085768434    4.47706986994463   14.86564710596697
C         3.18876984134085    2.77182885991557   15.89570409550469
H         3.10880218769255    3.21874351803837   16.88498030390182
H         4.09810212782207    2.17454322039559   15.86009380516686
H         2.33198917198917    2.12184459784795   15.73617957540000
C         3.29598247279333    3.19906488764487   13.42015817569695
H         3.48329511169670    3.97155461027027   12.67414744396974
H         2.35635705460662    2.69362741191408   13.20557950953208
H         4.10563980148406    2.47015848427196   13.38535031269489
C         7.43553555835649    5.24019736169542   14.52636906685786
H         8.44125443654733    5.71947576103590   14.52913891373830
C         7.27193314815050    4.48012414216834   13.19815131499613
H         7.43463925465981    5.15624671261812   12.35889251070473
H         6.25198697384626    4.09172730538200   13.15212001894758
H         7.98710049327828    3.66174523533444   13.13009483770912
C         7.37344578897089    4.23846285875902   15.69407474375873
H         7.67145149866603    4.71773555326319   16.62469869641086
H         8.03313467023703    3.39326556666789   15.51081878675111
H         6.34272061576046    3.89457289035537   15.77633309321655

