124
CSD_code = CEXKUN | q = 0 | S = 0 | Stoichiometry = C52H64FeN4O2S | MND = 5
C         6.71492782949884    6.79688548597844    6.25475213951417
H         6.50906980438235    6.34743951685219    7.23139104870133
H         5.76210289459831    7.12323721075021    5.83497915020878
C         7.36355225833072    5.77003479082314    5.37224536467833
C         8.77680599494457    5.61806805575378    5.49642988972501
C         9.61280925849395    6.41109407405771    6.28460962183527
C        10.97622328189282    6.12687837238049    6.29905442857448
H        11.64551150955817    6.72366617258799    6.90159734284020
C        11.47669920147614    5.08651310563454    5.52189065168400
C        10.57330938452439    4.34833517677319    4.75908009185462
C        10.89476078875114    3.22478399013549    3.94832897521095
C        12.29862089501616    2.70142509820675    4.03107457236450
H        12.55055982305005    2.11656479728580    3.14501904798296
H        12.39350753554624    2.03714081370389    4.89731427932323
C        13.24633155695479    3.89391156721238    4.20334048520562
H        13.15087855841301    4.55073957190933    3.33538874334269
H        14.27870798373027    3.54172343823973    4.24641640408449
C        12.92461232505034    4.69133246468605    5.47066580750707
H        13.15087591134100    4.07868647418088    6.35084623304156
H        13.55738827584544    5.57995638243566    5.52386554707423
C         8.98918239082360    7.51942583913749    7.08135572626425
H         9.68208771608326    8.35992429491399    7.15974725530908
H         8.79747891112585    7.15872423897176    8.09842733887814
C         7.67312470826131    7.97561356599641    6.44935522267353
H         7.20255383200803    8.73043070935483    7.08226868972303
H         7.88388662560114    8.43368865420356    5.48019493602917
C         5.37315983677923    4.95960199447132    4.47539073583919
C         4.69006320878479    5.73797909608917    3.52830404477399
C         3.30359920422014    5.77050540854923    3.56409862710232
H         2.76947651090611    6.38370013128147    2.85646192063480
C         2.59107651286218    5.03781022248612    4.49298381180418
H         1.51216063396927    5.08279766083737    4.51073879756779
C         3.26786039194624    4.24039682893895    5.39330620989015
H         2.70716137703657    3.65830609111044    6.10907322086875
C         4.65442353291745    4.18863089429882    5.40355666088019
C         5.44093524850407    6.53473477943250    2.48906896039678
H         6.42718530635277    6.07570729289998    2.37984700777780
C         4.73011432705416    6.49846286146588    1.13459334104384
H         4.41185967860842    5.48767354184277    0.89928288684106
H         5.40189865321827    6.82781658885186    0.34762124525178
H         3.85980234576195    7.15135409777943    1.12567926026652
C         5.62296837526946    7.99143605362674    2.92706332440141
H         6.07467463070757    8.56095127971131    2.11831301674268
H         6.27099657982973    8.06285328584408    3.79566321486418
H         4.66233004842563    8.44245651767333    3.17165639136464
C         5.34590118504446    3.29413487942473    6.40972230904086
H         6.42678733263608    3.34275831159965    6.22975132329510
C         4.89360945575654    1.84084402502951    6.24368237307943
H         3.82899414553512    1.74251581090029    6.43937569220946
H         5.42430052761787    1.19762201683715    6.94271091113115
H         5.08800681050366    1.49199664309284    5.23348958302742
C         5.06461796220814    3.74910025745760    7.84490046882449
H         5.32552275774257    4.79482538555387    7.98497724596759
H         5.64138047168442    3.15244278157909    8.54928937807232
H         4.01027716763521    3.63253312730077    8.08343907687141
C         9.98448042357263    1.45993976602207    2.70710722150078
C         9.79675979553769    0.34734590988909    3.54864654317414
C         9.86674099152885   -0.92345542845616    3.00278503323328
H         9.70769559555740   -1.78995693272844    3.62413048906813
C        10.15384111537169   -1.10215308199422    1.66171080360783
H        10.22375268408373   -2.09983688165638    1.25414408317362
C        10.34750988924086   -0.00521624781598    0.84618515906634
H        10.57418271309295   -0.15913530432030   -0.19669560788142
C        10.25160302401474    1.28674034607396    1.34462201295784
C         9.48473422748544    0.57145680181882    5.01324074559083
H        10.10481703733669    1.39967951492344    5.37329766640261
C         9.78038531519509   -0.63853131691186    5.89940027271025
H         9.07589630098503   -1.44543898030658    5.71327050046514
H         9.69262529514532   -0.35509554921528    6.94653875133321
H        10.78951100938909   -1.00636055789373    5.72809151705982
C         8.01919270520997    0.98531756324788    5.17320892121446
H         7.79407591308789    1.88243894226896    4.57453603505415
H         7.80486177631081    1.19424886063075    6.21880619432101
H         7.36571442062559    0.18313886097649    4.83718699854768
C        10.43256961132313    2.48217771130716    0.44189442896670
H         9.91715632953846    3.32267151009128    0.91573664253711
C         9.81054121270107    2.24547918984865   -0.93457163283630
H        10.41583059999016    1.57099615786500   -1.53681015899010
H         9.73235501524943    3.18588712891421   -1.47342299559517
H         8.81520487031167    1.82358617931634   -0.83080558612893
C        11.91330667593194    2.83832168719401    0.27687769269540
H        12.47829370712546    1.97697230469408   -0.07664950131908
H        12.34303032793065    3.17341776560291    1.21631578809248
H        12.01891056189195    3.64191300475220   -0.44866984872966
C         9.65156521547839    6.17767878496682    2.35645492062577
H        10.65202002470846    5.79079875960454    2.55614902719647
H         9.37484777947880    6.82492308043147    3.18912644402380
H         9.69616472990277    6.78416417452388    1.45086937066285
C         8.66808404390467    5.05889364650735    2.19328103385264
C         8.01918402671589    4.84429813803397    1.05061466081941
C         7.98358555817161    5.54447919293693   -0.28383809576812
H         7.87649658380093    6.62969320069345   -0.21759079494040
H         8.88631322057044    5.32259291091519   -0.87577262593276
C         6.43320698643190    3.70043868647471   -0.34414716041119
H         6.81399368753688    2.87660912119505   -0.96734625831502
H         5.34419365921714    3.62408232814673   -0.30800206486409
C         7.09387239393695    3.72852346695653    1.01008645918500
C         7.01509913771011    3.02506840359649    2.13774685473197
C         6.08037872173228    1.86114838346101    2.28941581148259
H         5.42961067771171    1.75684992647419    1.42008514816727
H         5.45055495895919    1.99935711914231    3.16940255533989
H         6.64174337849608    0.93281480765374    2.40945484547211
C         7.72369056952226    4.36754680675913   -3.37333709076849
C         7.46532159386115    3.04933728909669   -3.69269494472101
H         6.48233755822361    2.65012256271682   -3.49788962757934
C         8.45950870489558    2.28273825082056   -4.27687375220929
H         8.26185510870280    1.25139351268728   -4.53078220286675
C         9.71176938990667    2.82659124448929   -4.53839775453395
C         9.94799983041501    4.16081982457196   -4.21797174762586
H        10.91563385437241    4.59405044024243   -4.42732573702275
C         8.95883782878812    4.93103237341472   -3.63293249698565
H         9.11689567793312    5.97034933029094   -3.38989196951755
C        10.79345370380419    2.00516729206592   -5.17089142560838
H        10.96527898242665    2.33720935110601   -6.19450317827894
H        10.52232017733507    0.95293195669348   -5.19295118798976
H        11.72818753116117    2.11768784992822   -4.62451597588354
N         6.78416980692226    4.96342090591346    4.52518417105057
N         9.24038154053924    4.58191767810538    4.76347186525318
N         9.87871936487392    2.73615564675904    3.28465804105767
N         6.79342056379878    4.99204346976080   -0.90222616501439
Fe        8.16515659341807    3.69801757637248    3.62160659168612
S         6.49243739117519    5.31608870743862   -2.48109705083975
O         6.75371195552893    6.71310155080240   -2.68981864878982
O         5.19290486832358    4.79704159571631   -2.79749804681536

