116
CSD_code = CEXLIC | q = 0 | S = 0 | Stoichiometry = C49H62FeN4 | MND = 5
C        11.74334088929796   -1.08624003644735    4.36223042633650
H        11.08812517161787   -1.93699359765335    4.15803202526070
H        11.97665132258242   -1.09205917141291    5.43129467034889
C        11.03965333730493    0.20202666804194    4.03963907016891
C        11.81739737867083    1.29036582648668    3.55639862072213
C        13.19751035030458    1.25404614429387    3.34650726633872
C        13.79182909534568    2.32003911480099    2.68201944073288
H        14.85241303709146    2.30833498756414    2.47606924650338
C        13.01252628853174    3.39502093294954    2.26375478600908
C        11.64563564580269    3.37692425521001    2.54673453605559
C        10.73563879291768    4.42480281564722    2.21003586580509
C        11.27650810226118    5.58579995590424    1.42088987504008
H        11.61506776663009    6.36535423915097    2.10713973594401
H        10.48883050149206    6.01480887863078    0.79625870276849
C        12.47568519917936    5.13986229698153    0.58382011952060
H        12.16330887338636    4.38009840410312   -0.13711058884869
H        12.87161205299697    5.99111451351967    0.02665496148999
C        13.56067222190697    4.55755088510304    1.49053741842956
H        14.42266177106905    4.23823011666927    0.90097723802449
H        13.90529409232390    5.33015518422630    2.18624859941649
C        13.93352506170716    0.02781768746380    3.79559686740567
H        14.17820729351727    0.11756603474210    4.85893260495994
H        14.87104077954265   -0.07164609819449    3.24521602955415
C        13.05430435707304   -1.20651237208512    3.58169125089006
H        13.58720784918695   -2.10342238755594    3.90331263759734
H        12.84117986839859   -1.30877949932990    2.51449979880365
C         8.83533424613270   -0.62672746978130    4.21179215064170
C         8.56032714727665   -1.21001355161446    5.45700544578919
C         7.59060153911813   -2.20231873843035    5.52620729153064
H         7.36285494600472   -2.65453585197293    6.47940180969523
C         6.91943873257843   -2.63145646924518    4.40013659910455
H         6.17259187820880   -3.40773521277873    4.47579306728358
C         7.21542878607051   -2.07254608600560    3.16950948560287
H         6.69924763749478   -2.43110220030635    2.29330634740619
C         8.16045355989575   -1.06803495492075    3.05721009280674
C         9.29682163563336   -0.81579283993363    6.71790113974563
H        10.02086575125137   -0.03629706440594    6.46542113587132
C         8.34914995359665   -0.25009676998781    7.77790567712016
H         7.83302071015518    0.62587698713430    7.40132183933419
H         8.91459184267513    0.03504768797507    8.66302795482299
H         7.60673824641659   -0.98862406291635    8.07065495223609
C        10.03803677826216   -2.02241035825132    7.30807524029909
H         9.33182542754217   -2.72976827131280    7.73606545024366
H        10.71056379746203   -1.69801284296751    8.09975381908801
H        10.61698009549204   -2.54617897754100    6.55178644322433
C         8.53437696178936   -0.48546418299580    1.70936370192201
H         8.84941332181479    0.56580325303241    1.86967382290974
C         7.38243230491211   -0.48473107993190    0.70769437984599
H         7.15014579673481   -1.49396098801511    0.37541938704441
H         7.66173448381628    0.09505496993353   -0.16982031044243
H         6.48982826281540   -0.04645947645630    1.14659988038708
C         9.72491024629293   -1.25399039238499    1.12758805984127
H        10.59483018707014   -1.15925737797367    1.77086928771620
H         9.98188374159550   -0.86654932767967    0.14346545934168
H         9.47951302285161   -2.31025395713569    1.03076324678745
C         8.50544146084347    5.19669738583167    2.40323208359357
C         7.44386921088270    4.87802416288362    1.53528236677467
C         6.36661312032769    5.74186448157156    1.43659545485222
H         5.54530826793781    5.51153985731266    0.77783054650515
C         6.32193449722759    6.90724336522891    2.17908137465510
H         5.46643046064009    7.56130552245968    2.10982259248508
C         7.38087303986572    7.23366326289255    3.00065186840380
H         7.34789000715973    8.15823383602847    3.55664154474564
C         8.48655751025328    6.40297469332427    3.12736359306891
C         7.54456247153796    3.63267630849034    0.68129146331186
H         8.08468045348788    2.86964222351574    1.27069600134372
C         8.36946422383334    3.93151283555125   -0.57513675018895
H         7.91327065714101    4.74167343572403   -1.14160115485368
H         8.42000109183020    3.05114040595286   -1.21343574799246
H         9.38351981839840    4.22170655837660   -0.31310972498852
C         6.18436682267076    3.06393537661852    0.28577988608864
H         5.55452441353077    2.93345776403316    1.16177498943874
H         6.31215183809322    2.09788024752711   -0.19595028582239
H         5.67581942483687    3.71818580970035   -0.41862884774181
C         9.63293646834891    6.85867834652661    4.00701032261804
H        10.42251086392741    6.10279496091244    3.98028331120929
C        10.18713790097692    8.19073057148800    3.48046088932824
H        10.31690382449355    8.17095052367999    2.40081081799212
H        11.14603662960796    8.41278305780762    3.94571165581609
H         9.50375268491774    9.00258509355305    3.71688588440697
C         9.23137519293687    7.03734103774126    5.47354023043494
H         8.35479466461662    7.67317518504037    5.56793051207471
H        10.04993431842922    7.50229832487659    6.02053270133888
H         9.01614411679977    6.07863927865474    5.93428706626846
C         9.10706146528558    2.95194407592830    5.27405571270315
H         9.74755889366631    2.28555161501782    5.85788991064209
H         9.56969553657466    3.94187437773961    5.28101501694956
C         7.72390388251882    3.00101928921502    5.91543088489376
H         7.77152321461294    2.75909318071465    6.98457503537826
C         6.97425651459229    4.32477515532123    5.74216629344429
H         7.08641689925776    4.97390954383207    6.61807043571109
H         7.34419048283618    4.85090882990682    4.85586159224921
C         5.41126588957701    2.53939564473395    5.39459479571983
H         4.75846866448102    2.32083081994603    4.54372904741219
H         4.97139273888550    2.08451663887639    6.29514416642585
C         6.83214291284814    2.03293526824967    5.14472565077262
H         6.95471971800887    0.99449268291304    5.45039761045822
C         7.27486895217537    2.22032968885512    3.70345376649746
H         6.82112613408356    3.14335712497206    3.33343543829488
H         6.88483703943636    1.39733458221175    3.08974895870918
C         4.61097895226522    4.88303551330626    5.31855386744026
C         4.90450503349733    6.25480761132639    5.27029339709014
H         5.91674073321079    6.59110381586026    5.42205998248196
C         3.91606461798238    7.18391511593877    5.02370617722284
H         4.17493965964496    8.23369285400481    4.98957854828099
C         2.60361955106633    6.79143890238247    4.81945563601350
H         1.83338979592701    7.52321587388243    4.62528248175477
C         2.29589962628420    5.44230433909168    4.87828608443098
H         1.27479443357087    5.11657514373796    4.73236788917901
C         3.27367532766564    4.50173553807928    5.12701108757156
H         2.99773466053037    3.46009227958827    5.18507602705488
N         9.74902682286664    0.42062388171932    4.03639823175957
N        11.03991641606969    2.32771893242688    3.15413025182124
N         9.50389611335177    4.23796583045296    2.58539460339840
N         5.58041856774675    3.96384701212880    5.57553747564734
Fe        9.24069715279472    2.25329475238961    3.38396523495574

