120
CSD_code = CEXLUO | q = 0 | S = 0 | Stoichiometry = C45H69FeN3Si2 | MND = 5
Fe        0.69496426383726    4.20531626867129    5.69048920596043
Si       -2.35977647034995    5.21394171689957    5.90866328814206
Si        1.84429027046997    0.78727833603669    5.37462670244509
N         1.16645215739476    4.31672698503305    7.82032425538578
N         2.46592133390503    4.18068471606729    5.64437188630964
N         1.02872955838231    4.60634374652765    3.60897220231270
C         4.53149232350301    4.16565364342626    4.37062752999332
C         3.14141502673786    4.23628107559741    4.45473642034724
C         3.21730187340046    4.10097142386041    6.78608598580889
C         4.61004807932893    4.03771009342539    6.76899937724527
C         2.44365784387169    4.12709142973010    7.97905603069050
C         2.29131463000139    4.43029993957312    3.33420311008441
C         3.16281099287613    3.94543793185595    9.28567044089453
H         3.27455953940628    2.87217111422269    9.47033493945006
H         2.57615445645184    4.36632782984885   10.10462309249804
C        -0.29331331157260    3.36751173008938    9.54636811940242
C         5.26868879902320    4.06216221817940    5.54436570103328
H         6.34691027068483    4.01545761441014    5.50710003946162
C        -0.02059739037867    5.77471612758632    9.34557612271424
C        -0.59095216749629    4.01377814221570    1.87715504569788
C         5.17756346056400    4.20421099562531    3.01664575402524
H         5.29383067864932    3.17778090092325    2.65159875888554
H         6.17628962815863    4.63921293435593    3.09354534625693
C         0.20500269809506    1.95729275700500    9.31750304817812
H         0.95932787778471    1.98359960553244    8.52741750825132
C         0.13506458364238    4.97984403440052    2.58972442343887
C        -0.04277141002089    6.34401836563497    2.28829996596603
C        -1.72972738201233    5.75607573091193    0.66369349436101
H        -2.45972199843328    6.05820914635158   -0.07249274467221
C        -0.35134812729551    2.53983087751056    2.10040317538750
H         0.42291877526412    2.43714532645889    2.86400177600781
C         0.77478048304065    6.97816608742029    8.88406926369277
H         1.34480614516180    6.69427408052808    7.99328533510685
C         0.29750498378384    4.47332756513330    8.90944858500036
C         4.55063115391982    4.57919253442213    9.20483422513275
H         4.45161625943684    5.65077870194020    9.01677545851118
H         5.07756577670464    4.44760390829419   10.15217261208823
C        -1.29086732943650    3.58365955120389   10.48637760016926
H        -1.76276406090928    2.73776333436582   10.96304054433458
C         5.35066792785876    3.94183753066870    8.07109270360488
H         6.32798959261133    4.41988075863111    7.97703204406392
H         5.52423434928250    2.88465334524926    8.30137599935411
C         0.80169226519173    7.42686020931899    2.92741847599282
H         1.36693624775513    6.98283533549273    3.75351774168909
C         2.91084168873943    4.42083283358488    1.96531146486196
H         2.28655579767059    4.96981760798425    1.25773987430880
H         2.96317581594047    3.38146768676086    1.62409963137196
C        -1.52078341347452    4.41805118359641    0.93062954897419
H        -2.08508263118839    3.67452363365231    0.38815339538678
C        -0.98019352228528    6.70408151193354    1.33170135116118
H        -1.12327495567635    7.74764237222251    1.09652342752065
C        -1.68001128834167    4.86034818780585   10.83831673660632
H        -2.46859482982651    5.01055039728669   11.56075040317165
C         4.32546070585114    4.99563828867621    2.02706061978622
H         4.28103050920024    6.03770599607297    2.35110822170530
H         4.78323107904724    4.96717561436353    1.03614817827644
C         0.86721610320526    1.43972081227952   10.60140479215062
H         1.61315679050078    2.13999969672478   10.96892257497731
H         1.35117017024805    0.48295603282934   10.41390777654436
H         0.12603473378199    1.29789205430900   11.38463789590461
C         0.15146080723760    1.87003796350492    0.81808866851758
H        -0.61171616323879    1.88372597967561    0.04350255305535
H         0.41508147123222    0.83308991782221    1.01780037948877
H         1.03085418803286    2.38395244663849    0.43526666652602
C        -1.01409563720689    5.94312140130002   10.29744094295061
H        -1.26897173063815    6.93759408541449   10.62991741262977
C         1.76653559963760    7.38357528737340    9.98199334488942
H         1.23553421467277    7.64090094148921   10.89654558790328
H         2.34297349600246    8.25012265495318    9.66309292618375
H         2.45794758692702    6.57656729113308   10.20746050155240
C        -1.62015247723967    1.84401867961058    2.59797139040402
H        -2.01190354508721    2.34966673293103    3.47827456537523
H        -1.40298996523573    0.80938896693156    2.85741001935015
H        -2.39261935910673    1.84896402004363    1.83207766838436
C        -0.89914525946735    0.98388658237184    8.89975141230307
H        -0.46597347579271    0.00753960408663    8.69037801218682
H        -1.41238897650300    1.32909086904805    8.00758193852887
H        -1.63553062670486    0.86500873568305    9.69104056772374
C        -0.55577270392276    5.74337516590456    5.79707199707690
H        -0.30545542190274    6.32619134128025    6.67266994311542
H        -0.44132983271245    6.37880649848565    4.92908090730294
C        -0.10356990937250    8.18613454309497    8.54380456882510
H        -0.93851863628595    7.90165507371352    7.90976779245882
H         0.48901973497975    8.93380232661267    8.01989713299018
H        -0.49976966674074    8.64775626509851    9.44552481987732
C         0.65293813722906    2.21812381342628    5.62062109070387
H         0.15629259125894    2.06965635893021    6.58179027415601
H        -0.11997328186789    2.17231724412475    4.84643741118271
C         1.79405025474463    7.99286300282731    1.90508728399866
H         2.43611584216788    7.21387588567769    1.50505605412080
H         2.42081040977774    8.74958770188520    2.37272766189238
H         1.26365760761972    8.45296834154305    1.07399319299722
C         2.93061812582163    0.89947238821085    3.80494113682179
H         2.34774048847957    1.15512800538140    2.92663746173289
H         3.42032785989177   -0.04968430766587    3.60546528433274
H         3.70347283217670    1.65068927922340    3.92081061339074
C        -0.04666772459609    8.57791300310827    3.47960753645988
H        -0.46521666217850    9.17628435028728    2.67374890154419
H         0.57223079701640    9.22884401903982    4.09397711678505
H        -0.86673041476372    8.20782491349731    4.08970016057217
C        -2.61955790146068    3.46444514325689    6.63213497194749
H        -2.13595679104657    2.70247609232156    6.02868948844036
H        -3.67437949821428    3.21330629880468    6.69689321117620
H        -2.20845759158882    3.41697199738010    7.63514725533410
C        -3.33376263014914    6.38828520932190    7.07438823127642
H        -2.96048051395453    6.31619008551806    8.09171343062473
H        -4.39024971562586    6.13819075665884    7.09542366584400
H        -3.25248861251505    7.42548445426891    6.76228667903921
C        -3.21258500689343    5.30016417770251    4.19719028327990
H        -3.22829935118989    6.31770303464321    3.81945309147596
H        -4.24052459468612    4.95341214518550    4.24420635002065
H        -2.69165147322391    4.69760227833899    3.46186217607846
C         3.03303970948429    0.57233509028081    6.85774954253674
H         3.60902311803757    1.47506574369369    7.02809704890787
H         3.73498869008493   -0.23787206707734    6.68197581829805
H         2.49590588160188    0.34270770772776    7.77248407501072
C         0.83994622794048   -0.84231766031207    5.22060047101485
H         0.16697018307705   -0.97429024235658    6.06223483112054
H         1.49059411269705   -1.71083848319955    5.18262354702776
H         0.23542777161830   -0.84867874657163    4.31858644783335

