49
CSD_code = CEXPOM | q = 0 | S = 0 | Stoichiometry = C22H18O8Zn | MND = 6
Zn        0.00095567210522   -0.00100743259964    0.00054385165753
O         0.58674852725221   -0.19658924884075    2.00211781006830
O        -1.22233087547360    1.25007677335192    0.75886195284046
O        -1.63871487014366    3.93504655360926    4.58985922747762
O         1.60603144348835    1.56322802238782   -0.20327361658980
H         2.39150971627398    1.03918238477531   -0.39644297222055
H         1.42604631111992    2.11935913926435   -0.96802095291908
C         0.11494592058760    0.76382551658700    2.62360983671883
C        -0.91468633564432    1.59439141418216    1.96409306340155
C        -1.50797525165877    2.63774150567459    2.63781485315949
C        -1.13843138983800    2.99077785197418    3.99000111702052
C         0.29548217784484    2.45409545099829    5.95320403697866
H        -0.18047370894607    3.28620273530313    6.45052106125138
C         1.26941698783949    1.69814160053586    6.58909577720149
H         1.56078041479431    1.93930674773944    7.60061018084351
C         1.86882254442855    0.63708926158084    5.92955652849429
H         2.62833250613865    0.05054114423564    6.42450846668910
C         1.49321905678830    0.32896570804771    4.63345161130709
H         1.94864006006461   -0.49056728329672    4.09811957762414
C         0.51288240586673    1.08229764945290    3.99056924831716
C        -0.09115449072223    2.15637110370772    4.65533305654528
C        -2.56654352817196    3.45567270572860    1.96527446257791
H        -2.42458557263952    3.42198020961463    0.88833050823377
H        -2.52648287160327    4.47966770387128    2.32865602137153
H        -3.55613985800737    3.05822311383521    2.19393995743009
O        -0.58483930862406    0.19618042080667   -2.00116637284004
O         1.22331455641268   -1.25195239163346   -0.75843059516827
O         1.63886984279184   -3.93515124566800   -4.59078350328560
O        -1.60782276525917   -1.56223133116026    0.20230902342786
H        -2.39183770966526   -1.03426060101479    0.39055848599414
H        -1.43369123026464   -2.11714645754731    0.96925954793647
C        -0.11388489857767   -0.76452128892777   -2.62291864800806
C         0.91553589231162   -1.59562918835224   -1.96380261497921
C         1.50857205882784   -2.63876567917834   -2.63809529486651
C         1.13871718707099   -2.99116371167708   -3.99037603039709
C        -0.29572019774835   -2.45366228633868   -5.95298449830864
H         0.17998965076290   -3.28564387400305   -6.45074559995843
C        -1.26975285195662   -1.69736694926445   -6.58832862809856
H        -1.56139103429746   -1.93809179059669   -7.59986863862866
C        -1.86883057150752   -0.63646762452139   -5.92824974103023
H        -2.62839581348384   -0.04964096492286   -6.42278920524246
C        -1.49276660423484   -0.32880415640171   -4.63217047000637
H        -1.94795355766360    0.49059053933132   -4.09642430619387
C        -0.51230886450717   -1.08245385397338   -3.98984852747657
C         0.09136118397897   -2.15640486018428   -4.65514308167603
C         2.56721528380643   -3.45708274453087   -1.96617756913890
H         2.42580096516782   -3.42346767686667   -0.88916579649239
H         2.52672742331922   -4.48101953429235   -2.32967722203111
H         3.55679637159907   -3.05986308080189   -2.19531537901261

