130
CSD_code = CEXQII | q = 0 | S = 0 | Stoichiometry = C61H65ClN2Ti | MND = 10
Ti        4.71152657195618    0.29960075048162    6.82244956972291
Cl        2.61520971284864    6.92591288413635   12.41576828118519
N         3.52468903361636    0.18875325550932    5.61321331560273
N         3.74291810056436    1.49742509371048    8.06747979554052
C         6.71115410486263   -0.78900437876557    7.34587692319241
C         5.74141656549278   -1.69090569495896    6.82765575829191
H         5.83877550685796   -2.30528610669926    5.94273141568679
C         4.69034519894868   -1.80560803750095    7.77258344417153
H         3.88991823763316   -2.53735193543920    7.74570024699247
C         4.97729352547935   -0.93789337910588    8.84214918976494
H         4.40941309772340   -0.85580137416091    9.76395172955994
C         6.20723960950669   -0.30640432082887    8.57075691798173
H         6.72230002807727    0.35261059818541    9.25619337193627
C         8.07354027539502   -0.47555590954236    6.75723295318993
C         9.14835825347934   -0.44509860204675    7.87072644581114
H         8.89953112135649    0.33854637754735    8.58875877680451
C        10.55387805672490   -0.18594477101985    7.31911884345731
H        10.62668730987499    0.78580582607900    6.82856676926364
H        11.26151562626389   -0.17621634213483    8.15286576089363
C        10.93762681339600   -1.27924605209355    6.32764217122729
H        11.92631277189780   -1.06186474099143    5.90574330177193
C         9.90161436904702   -1.32322427191047    5.20546437252292
H        10.15913790374260   -2.11805012836596    4.50035094821918
H         9.91099505304971   -0.38188652691392    4.65426159294722
C         8.51215581855696   -1.59990974287195    5.78520131475860
H         7.79071183439513   -1.67088100934286    4.96535180074774
C         9.18659811776950   -1.79006456250857    8.60438846544676
H         9.90388712595284   -1.73200388158451    9.42754914612244
H         8.20683903061495   -2.01645538837777    9.02990967701792
C        10.97715150929912   -2.61856386857642    7.05836806287200
H        11.72219804671313   -2.58565826863369    7.85724388102981
H        11.26162364100760   -3.41692077452254    6.36858105933201
C         8.57521066225753   -2.95409545432495    6.50340105052905
H         7.60291134994052   -3.22838318574012    6.91157160026617
H         8.86427496860971   -3.72435242875506    5.78291764958437
C         9.59332024184986   -2.89952603816506    7.63716329502823
H         9.60536758609085   -3.85927598749635    8.16730977483343
C         7.96000599577963    0.91375962654891    6.01682703395302
H         8.96365667396097    1.30673703576406    5.84376131656450
C         7.09522631062611    1.95145673996146    6.74376714549480
C         5.77252392190004    1.95699625816985    6.07541330003515
H         5.23634230624056    2.91290527864305    6.03989309930168
C         6.02372503434722    1.34889773938892    4.76300343346535
H         5.33359813803581    1.44958815288136    3.93641673502917
C         7.22709512594355    0.76530735270854    4.70948972613033
H         7.64837479772507    0.26261724442480    3.85605246154893
C         7.49469365211469    2.82650270203751    7.68246317516886
C         8.89996596931545    3.02529339741973    8.18632044239500
H         9.57888641033868    2.28878213700425    7.75943544452066
C         8.95332086477406    2.93674669053490    9.71479059651399
H         8.64291283746100    1.94345879460243   10.04931136702724
H         9.97953165419777    3.09469454320800   10.05624340248111
C         8.03073263933935    3.99109609981690   10.31844010351031
H         8.05484158186837    3.91839009321246   11.41262794254686
C         6.60752063341073    3.74982388119072    9.82241869292369
H         5.93068742198968    4.48966856027008   10.25970821397306
H         6.26304595710543    2.75930921124415   10.13432392024037
C         6.56952009476050    3.85248918242173    8.29389750531706
H         5.54139085797776    3.69257073117515    7.95844347330022
C         9.36789041608621    4.42404890994673    7.75811586052003
H        10.39713074013647    4.58376418155908    8.08944751049349
H         9.34781692126325    4.49682217747650    6.66814256250831
C         8.49174275064891    5.38338348269168    9.89026700969853
H         7.83965571838990    6.14188749752563   10.33059631161635
H         9.50723882500764    5.56481432670719   10.25022365708262
C         7.02584613448665    5.25459875341366    7.87622506602614
H         6.98549986725184    5.34263653682746    6.78797896792992
H         6.35556192463270    6.00540706601716    8.30445209555642
C         8.45323336397419    5.48444467065424    8.36590271926556
H         8.79191718863156    6.48073196404554    8.05771785512671
C         2.54611052286738    0.18166934852474    4.72698755510551
C         1.30220563068436    0.80484820585428    5.01975580556640
C         0.28053055515170    0.80293019631313    4.08795685736117
H        -0.65724555092004    1.27886203962128    4.34382740294582
C         0.43414226610756    0.19176834778896    2.85426549872074
H        -0.37717204582642    0.18801309691384    2.14201529186874
C         1.64122870781401   -0.41606826367621    2.54628128869208
H         1.77404929837351   -0.89826481845728    1.58722246797550
C         2.68759228246557   -0.43212111475866    3.44778629514686
C         1.08167819099199    1.47197870676632    6.32457595466722
C         0.76715155746421    0.72665928753419    7.46344627654298
C         0.40209136413691    1.38410005367451    8.62904392766466
H         0.13780527555126    0.80481189793025    9.50388126496978
C         0.34234706544131    2.76870397456845    8.68971463052507
C         0.72437411430155    3.49640989068793    7.57074636121527
H         0.70845752728471    4.57747680403598    7.61471914367710
C         1.10955491056696    2.86709431884682    6.39771863647117
C         0.83906654991650   -0.76982303867860    7.41866704265647
H         0.31282968624662   -1.15476325917378    6.54658739145929
H         0.41353876280574   -1.21074497263274    8.31741485791854
H         1.89114005861425   -1.06496816202277    7.33578078286538
C        -0.14944361379549    3.46074379699763    9.92637305277245
H         0.13853734691104    2.91384786028597   10.82196987792322
H        -1.23826780043175    3.51950987863260    9.90667701353493
H         0.24113788073702    4.47396681083022    9.99176406966633
C         1.58340908064553    3.66042383682282    5.21594528626666
H         2.57825542595828    3.31489598271745    4.92755800590301
H         1.62495609147127    4.72217314845264    5.44926615652465
H         0.92434174909988    3.51677411173762    4.36152130363576
C         3.96769641514064   -1.09261184931416    3.10043091490183
C         4.84162098640588   -0.51303428770910    2.17924430841312
C         6.04663345907539   -1.14069841354361    1.89551944165315
H         6.72541551741277   -0.68170504548560    1.18911719802845
C         6.39854208030201   -2.34025992210125    2.49395001479594
C         5.49992514988666   -2.92714017530596    3.37392066480319
H         5.74652301121066   -3.88176534055026    3.82167171383704
C         4.29112974614895   -2.32202527131935    3.68189524243470
C         4.49090758457581    0.76410280388327    1.47064359555010
H         3.79179404022681    1.35895556077038    2.05434575886324
H         4.01718202008494    0.53814876385414    0.51441853564850
H         5.38523503551873    1.35104023280689    1.27009376315836
C         7.70331683606768   -3.00620011085997    2.16899966663041
H         8.02677374201904   -3.64752009747613    2.98604722347101
H         8.47763066198750   -2.26721873585980    1.97297245640700
H         7.59683942101992   -3.62483211274730    1.27697497795329
C         3.30695304604422   -2.99595152439247    4.59215200368967
H         2.37699515238089   -3.18923500171233    4.05732862864360
H         3.07538375663675   -2.34534606268264    5.43621264751243
H         3.70020282777303   -3.94079466966680    4.96180153495167
C         3.49342354177959    2.38743990545214    8.76766854960778
C         3.24764883572217    3.45880958363629    9.62701278009411
C         3.07522283361368    3.23704013037138   11.00167455267769
H         3.09848095622502    2.22823070798679   11.38423847838471
C         2.88138893541393    4.30127350826623   11.85400238644435
H         2.74897394886486    4.13848787044994   12.91189029770321
C         2.85732638800155    5.59560994816757   11.34632921589622
C         3.02520002347266    5.83003615875571    9.98456600337145
H         3.00386908675512    6.84109376845266    9.60899669643686
C         3.21919934749003    4.77136412145718    9.12735685190960
H         3.35238321153467    4.93884494851523    8.06993757531976

