32
CSD_code = CEXXEI | q = 1 | S = 0 | Stoichiometry = C9H15BrMoN3O3(1+) | MND = 7
Mo        0.08092285780673    2.23352189871593    2.25080560084942
Br       -0.38524395406447    2.19049268514367   -0.36150986284684
O         0.70276856930024    5.10658903195901    1.24403425736750
O         2.73512048112328    0.82002200276375    1.50719945866086
O         2.44748073897157    3.88862368695311    3.38855125775865
N        -1.96766207327471    2.97346369527426    2.76584930719323
N        -1.13132528332224    0.43910349468177    2.19157159622326
N        -0.19034379570027    1.65834984932175    4.41909617824156
C        -2.90732775233400    2.15085399615347    1.98812081472672
C        -2.59596824079948    0.66419885619396    2.19217493443170
C        -0.68987167510090   -0.45288067905954    3.27188695499596
C        -0.75246628125227    0.30613705090772    4.60041735881847
C        -0.99104744004824    2.72892111351204    5.02790019479451
C        -2.26482414501732    2.96603098027774    4.21293294052520
C         0.56213769466698    4.04071554388565    1.65074804889698
C         1.74156365843317    1.30056012307581    1.77403152351446
C         1.52388497889012    3.34140478682972    2.95536756108863
H        -2.07735250033469    3.92879427901922    2.42572055730339
H        -2.78819115849412    2.40687337508449    0.93108085028185
H        -3.94867408842808    2.35190234279629    2.27038013908673
H        -3.01506307895242    0.31484957367296    3.13980970899012
H        -3.07915170023981    0.09430283652130    1.39295884927626
H        -0.90469286350221   -0.01489284129878    1.30164617496040
H        -1.30512191690899   -1.36097784856012    3.32758000061271
H         0.34449893583866   -0.75380746835731    3.06869447374450
H        -0.20343539937563   -0.25312986780324    5.36351702529762
H        -1.78765807238494    0.38778011494479    4.94127235474931
H         0.72406202670907    1.67690629288471    4.86671297242402
H        -1.25647515948230    2.49186976648245    6.06601310130055
H        -0.38198136560221    3.63931815979223    5.03157890662224
H        -2.99595757124848    2.18164397719730    4.42586607373504
H        -2.71070442587339    3.91295919103407    4.53099068637587

