27
CSD_code = CEXXAE | q = 0 | S = 0 | Stoichiometry = C12H10CrO3S | MND = 9
Cr       -0.35675037578522    6.31330943294276    7.65879876126301
C         1.38851117652256    9.24257614361681    7.12386752768438
H         0.84198286631260    9.42775835304202    6.19591041681892
S         0.49640301263672   10.14876789103297    8.45529428644439
C         1.03372230825013    7.58521977852417    8.89064834816336
C         0.77707650965593    8.82408462860109    9.68666345963793
H         1.63383591283251    9.09006248722331   10.31447807277345
H        -0.11249183960249    8.75069865249354   10.31204712963823
C         1.06599126449998    6.28182510195463    9.42902256336275
H         0.91026569392608    6.13067270731941   10.49052672959004
C         1.38546976109875    5.21025801083378    8.59441748389745
H         1.47934174804071    4.21353863869329    9.00829944671158
C         1.68520736187627    5.42719380934186    7.23181503386804
H         2.00240354169251    4.59537113697237    6.61507265345281
C         1.32974087740644    7.80374139269499    7.54119482977363
C         1.65298597991775    6.71740463042191    6.70140665549384
H         1.94765101689568    6.89855024739147    5.67435375471499
C         2.82911630569862    9.73238208941593    6.99620257948066
H         3.34151399984774    9.19892402866991    6.19698073647009
H         3.36991052862953    9.56885150750301    7.92704227103556
H         2.84266278864459   10.79552782780177    6.77102722436118
C        -1.33330978196542    7.00779379153315    6.28571085530225
O        -2.00336317611613    7.42882177541671    5.44573180346529
C        -1.84890940225406    6.80543435863012    8.58209378730352
O        -2.82512848753698    7.10920411814832    9.11725238050697
C        -1.37344219196782    4.84033424388450    7.30321518410620
O        -2.07609739915721    3.95499321589626    7.06912602467964

