55
CSD_code = CEXXIM | q = 0 | S = 0 | Stoichiometry = C18H27FeN3S6 | MND = 6
Fe        7.48297674007493    4.32267956255515    4.80739019428026
S         6.00127328150575    3.03134292286157    3.60944620966137
S         5.52001183047320    4.52882547253214    5.98594352339889
C         4.86924732499933    3.53990962783215    4.76643116263735
N         3.57870179925653    3.19460380520141    4.74073312203202
C         3.01841793773222    2.40314566668716    3.67462601579556
C         2.66673353712749    3.73062821941416    5.72538552034173
C         2.16337360860634    5.11973524285241    5.32344160507285
C         1.36492108191984    5.77440751176535    6.46371324510462
C         0.50871767736656    6.87050526389293    6.15652881476078
H         2.53927624859060    1.51273743398291    4.08661861201151
H         3.81441592015049    2.09961436708159    2.99844438535712
H         2.27971514291827    2.98224297612700    3.11701066666312
H         1.83321211453582    3.03121663143392    5.83180091611606
H         3.20070106224754    3.79958232112881    6.67847728261064
H         3.02192845052086    5.75520875305586    5.10028875072638
H         1.54068884778779    5.05657165499582    4.42954256624259
H         2.01040666550513    5.92009727334590    7.34070985839088
H         0.54058456316990    5.10198235116034    6.78238911811508
S         9.34196381568825    3.68515947292223    3.60984333033543
S         7.10846910874667    6.24926563203213    3.60571755143429
S         8.28706007312324    2.52002220183056    5.98709676188585
S         8.64083343938902    5.92164773398461    5.98619935818742
C         9.46769334393274    2.45025487325475    4.76656480795844
C         8.11453067368633    6.97678126427436    4.76209585410244
N        10.41168666359455    1.50498595707335    4.73972324473309
N         8.46332060613507    8.26633306099030    4.73287821217844
C        11.37707376167337    1.41648663799268    3.67331936725110
C        10.40418134076761    0.44626616366695    5.72336390117371
C         8.06634015574311    9.14295189525866    3.66009316032770
C         9.37969106873276    8.79049085037106    5.71978484620275
H        12.38793705383687    1.44891723461172    4.08501562736879
H        11.24012007502431    2.25693644399149    2.99651463192074
H        11.24635672060527    0.48647614948987    3.11645872861943
C         9.45413437937160   -0.68466642972495    5.31982122967983
H        11.42700603834064    0.07495284666870    5.82952970906451
H        10.07687403640707    0.87279673154315    6.67686332270719
H         7.54066019517012   10.01002627725388    4.06542948170535
H         7.40241935008587    8.60549710409267    2.98651261455714
H         8.94084306543371    9.48271947760165    3.10121334611234
C        10.83607614719421    8.52755668074447    5.32696248211333
H         9.19230605210281    9.86288958178415    5.82043891218905
H         9.16648859550904    8.29823346019769    6.67397036908635
C         9.29407692091844   -1.70968710850777    6.45560486947936
H         8.47251797767879   -0.26040929235849    5.10262823969636
H         9.81792475438791   -1.18695461514866    4.42195021717311
C        11.79645800033576    8.89760580351159    6.47024307184759
H        10.95704425055288    7.46483510414071    5.11089230323003
H        11.09818026233216    9.09273783556492    4.43106430819943
C         8.77442235879394   -2.99884683118543    6.14416493120541
H         8.84841526386148   -1.22920953889256    7.33735792895350
H        10.29098276398740   -2.08683198540098    6.76740709789619
C        13.17564731012441    9.08799756418038    6.16950421068356
H        11.59442245566175    8.27139303726928    7.35002538761259
H        11.62563808655432    9.94985166693278    6.78152501379224

