51
CSD_code = CEXYOV | q = 1 | S = 0 | Stoichiometry = C24H22N3OPt(1+) | MND = 4
C         6.94099047764945    5.83271618325346    9.07789709812026
O         6.04538268652333    4.20504200512914    6.11421964577206
C         8.26047171113983    7.78211016604369   13.14016087942123
C         5.31756932872692    7.73175998029849    6.36816925411799
H         6.29551918527114    8.22412138404019    6.40141985578924
H         4.87958439114711    7.75676654744814    7.36827179729304
C         8.99581795503232    2.04033311735710   10.91343107931231
H         8.96617248626603    1.14695343318318   10.30743593096513
C         9.62985845294785    2.01654039244307   12.14318797482958
H        10.09396236770189    1.10947720510221   12.49844498639704
C         8.39668126919110    3.20556795236525   10.45186565737517
H         7.90963643850571    3.19684294038704    9.48872897300413
C         6.48395672216196    5.67048131187050    7.95164205989624
C         5.00252524192646    6.15013044161859    4.57397320094192
H         4.06040389360508    5.59336645833606    4.60266764309173
H         5.72649026021165    5.56665481188355    4.00262937885322
C         6.62054265095092    3.14169647231161    6.85964587470871
H         6.52448867056984    2.25820560955591    6.23287797586873
H         6.08651986975992    2.99675600808855    7.80108428031802
H         7.67350414202592    3.34408383463179    7.06704694880899
Pt        7.65592132463149    6.19551627502424   10.84704391003362
N         8.39308026470866    6.56430801365473   12.60680188877077
C         8.41461438641789    4.37232420262905   11.20349220662134
C         9.05082117960824    5.57580434408110   13.22811474798776
C         6.00468822481428    5.40639515808575    6.67008332391967
N         7.10012577227312    8.26572689417164   11.10868987577012
C         7.50330555144539    8.73110653143276   12.30721046111816
C         9.50694769251169    7.06469658444356   15.04788638983787
H         9.94892569574649    7.26613439299484   16.01137370595753
C         9.06582526255657    4.33062237240635   12.46353207432957
C         9.62753876248805    5.81002635053663   14.47764418208082
H        10.16147323779491    5.02723377777597   14.98948149395386
C         8.81762997431714    8.06979201499721   14.38275059786620
H         8.72635598600068    9.04715566481684   14.82520908682458
C         7.20422450368923   10.03060780717060   12.70824183148982
H         7.52415367468141   10.39255975709374   13.67100497318154
C         6.08360787099209   10.36471996202919   10.62880339227262
H         5.52460588870824   10.97552699736926    9.93911249256292
C         9.66540892792545    3.16012963755929   12.91956371987025
H        10.15811304737102    3.13584051520535   13.87966656981187
C         4.80169700347464    7.56553869198736    4.04168172864641
H         4.03725251326257    7.60994985172097    3.27100581212480
H         5.73450151864305    7.94999423113007    3.62924552483114
C         6.41589620104950    9.06122435879157   10.29932742674333
H         6.12790924831540    8.63257144165635    9.34910184692286
C         4.41815823323452    8.34651104469816    5.29799115827977
H         4.57829269564809    9.41592201621418    5.19102586655407
H         3.37004432058478    8.17367056046441    5.54232990437119
N         5.48169443162391    6.35867506185812    5.92846570791450
C         6.48526171364573   10.85632037480975   11.86117870772115
H         6.24364669052322   11.86458885784313   12.15893889674790

