37
CSD_code = CEYCOY | q = 0 | S = 0 | Stoichiometry = C18H18Ti | MND = 12
Ti        2.12213640505975    1.11500266945791   11.03330544507816
C         1.90460678723998   -0.12984143240690    9.35761830865281
C         3.28957706469287   -0.14369593733095    8.79843791098364
C         4.05154818088631    1.02460805695864    8.98117765108257
C         5.35719350781455    1.06753519593364    8.51264881296110
C         5.91018377053070   -0.02773665021397    7.86518935291228
C         5.16104870191735   -1.17607228232387    7.68537425145084
C         3.85603626406244   -1.23362236544609    8.15247899487039
C         3.38798036925540    2.14486205836979    9.71318781775859
C         0.78949362170557    2.61728102656871   12.33547499910041
C         0.02895844006189    1.45070149386711   12.14286337727216
C        -0.22262940025338    1.31371065254605   10.76573141336860
C         0.37052867534115    2.41137022146891   10.10709100300549
C         1.01379135622559    3.20722029780230   11.07853168212107
C         3.46178772817281   -0.70290821924597   11.68839593804444
C         4.21988165359604    0.47027217116762   11.87532572215453
C         3.60176702314017    1.22890690121647   12.89401738673575
C         2.49641538647262    0.50028284233558   13.36357051622213
C         2.37630221344163   -0.66702226581076   12.59152480865735
H         1.24416376149867    0.34259494027689    8.61342477995051
H         1.53689692488261   -1.15427736568854    9.52526008167726
H         5.95201587179258    1.95980726027835    8.66212775585049
H         6.92875673512716    0.01599435092428    7.50723092945727
H         5.59270730820407   -2.03181369180803    7.18646679851158
H         3.27769554580375   -2.13939928084121    8.02056248086713
H         4.13398034711476    2.82860948816471   10.14761599859534
H         2.79475967896057    2.72030191034067    8.98512295341642
H         1.05702800854594    3.05513707638674   13.28806923666559
H        -0.39435784913820    0.82849881663326   12.92037225792912
H        -0.87901228526069    0.58059313393331   10.31215190700640
H         0.25357293906714    2.66061328352915    9.05950043896840
H         1.46891453371813    4.17529165133673   10.90589260139974
H         3.74835508140007   -1.54446324019785   11.07221854598212
H         5.18248838195692    0.67433538773581   11.42608233892310
H         4.00177675774474    2.13437299388140   13.33639035381543
H         1.89210013435632    0.75344235514865   14.22363503878468
H         1.67065037486020   -1.47249350494489   12.76123010976873

