42
CSD_code = CEYFER | q = 0 | S = 0 | Stoichiometry = C23H15ClIrOP | MND = 7
Ir       -3.25570695599998   -0.18585144477729    1.77354448819688
Cl       -4.18951254811949    0.24649838099468    3.97072346037479
P        -5.51472711332519   -0.04400131609902    1.17643812418629
O        -3.15476772521269   -3.12124785335121    2.44912748688672
C        -3.14568870555981   -2.00627229872859    2.19292186458139
C        -1.40730122655833    0.37390470069598    1.21790141216767
C        -1.65188535862737    1.73277742897812    1.50426318736831
C        -2.84407749918311    1.53923754006899    0.81692743867861
C        -2.03680844262933    0.68903139683488   -0.03143981458161
C        -6.51342493773622   -1.52855898299548    1.50270022176501
C        -6.45985109873225   -2.09711337393092    2.77440358368373
C        -7.20743938987222   -3.22412951746349    3.05911373881231
C        -8.00367426396718   -3.79590188288227    2.07863735426584
C        -8.05437902898673   -3.23516210227259    0.81337147429156
C        -7.31260335352005   -2.10397785509498    0.52025717227564
C        -6.43901828411515    1.31596430405707    1.94032569654173
C        -5.96766691111851    2.61028238785731    1.73404171042469
C        -6.61523461602143    3.68365563046129    2.31326100749344
C        -7.73183974479319    3.47107382530963    3.10725766779283
C        -8.20039833502966    2.18491760090713    3.31513804968328
C        -7.55840329361314    1.10430790069235    2.73563673235694
C        -5.72265977317189    0.22828775849229   -0.60920345424301
C        -4.85056898192433   -0.43707029114383   -1.46697212036659
C        -4.96225642170020   -0.27182751106710   -2.83426848240163
C        -5.94220295344423    0.56124608965742   -3.35161536238599
C        -6.81260134184820    1.22292343133540   -2.50086753003825
C        -6.70811622206467    1.05904442056302   -1.13063178696782
H        -5.83401539187545   -1.64577834803658    3.53211585524507
H        -7.16525019625819   -3.65962309878164    4.04610374013030
H        -8.58221856198846   -4.68025604865818    2.30016717883877
H        -8.67325085198149   -3.68010435151690    0.04819285677193
H        -7.35504984860029   -1.67101136338375   -0.46887401255188
H        -5.08701609311927    2.76660383869232    1.12351527181793
H        -6.24470853010748    4.68554446956505    2.15469546597590
H        -8.23225591477327    4.30912140530384    3.56904454530163
H        -9.06752433659276    2.01885961769340    3.93716061284064
H        -7.92266789791632    0.10162662380271    2.90552282026529
H        -4.08058828193115   -1.07683574926269   -1.04868278578164
H        -4.28161064900184   -0.78536139532461   -3.49619856881261
H        -6.02510496042542    0.69807311656549   -4.41940199108366
H        -7.57562392423927    1.87176044575331   -2.90499819978853
H        -7.38760003430811    1.57504247048064   -0.46655611000851

