61
CSD_code = CEYHEU | q = 0 | S = 0 | Stoichiometry = C29H27NOPReS | MND = 8
Re        4.26001286403103    2.39300047543794   -1.40300799561059
S         5.54818880468657   -1.92118611552484   -0.03169734483218
P         3.43015002875921    3.24852970597837    0.66382013228346
N         2.70805084507631    1.76902949440978   -1.89771655097026
O         1.64912769974254    1.40444240401547   -2.28486078601625
C         5.31841440842942    4.50804305331868   -1.86013224740520
C         6.29067722633245    3.58844201569428   -1.37447580482991
C         6.42179421142197    2.55799346972621   -2.32756525907649
C         5.48831647753921    2.80339638377816   -3.37111992687012
C         4.83474635426228    4.03302803179058   -3.08836320538751
C         4.90093930044607    0.53380969038012   -0.52748822952877
C         5.85684712934958    0.54446038972522    0.53418796428552
C         6.30124728561761   -0.67798052388033    0.91587668700134
C         4.64440926687215   -0.73668920143047   -0.94431938007354
C         7.28297838380315   -1.01778738317976    1.98196680330978
C         3.71788444023021   -1.22030345410732   -2.00883314954256
C         2.60069712981525    4.86534090888819    0.47948610267472
C         1.81582223016964    5.03012768158971   -0.65844961679338
C         1.12649274843665    6.20943725321012   -0.86723467600883
C         1.21702319546441    7.23583361859990    0.05993216800336
C         1.98870050720299    7.07375522902313    1.19841168420283
C         2.67717724373112    5.89213116839005    1.41413122634609
C         4.67529032181497    3.52113420693642    1.95955065138716
C         5.55274713168154    4.59914866893913    1.87001055731301
C         6.55994015055964    4.75700812454819    2.80411944050726
C         6.70724049350098    3.83406671520659    3.82736644215682
C         5.84528535646807    2.75235067618590    3.91334762506173
C         4.83524417226226    2.59033531330902    2.98240131216206
C         2.14637121219944    2.28985042544386    1.53206344195772
C         1.42748473968531    2.86546849345473    2.57574023127952
C         0.46917498360882    2.12500048721785    3.24270928791462
C         0.22375086329530    0.81196302268403    2.87295706379855
C         0.93907462695545    0.23805647850268    1.83470449564649
C         1.89994778952843    0.97258904000592    1.16194975800076
H         5.06851936974267    5.46150971983338   -1.41489027221346
H         6.96076965161680    3.76456573180425   -0.54273304980854
H         7.15890936752714    1.76807976928316   -2.31463938242784
H         5.42567891957727    2.25586695700563   -4.29980055627616
H         4.13735954512747    4.54086466623375   -3.73640151097644
H         6.21718934538708    1.44705674918815    1.00296413869875
H         7.62250784806497   -0.10828440375329    2.47358939843128
H         8.14623596539995   -1.53623857192228    1.56438984369487
H         6.83023117975849   -1.67253935429807    2.72633811758791
H         3.66251303533153   -0.48832493217506   -2.81320268954317
H         2.71178547681065   -1.36396628222633   -1.61364999583434
H         4.06509107967917   -2.16891265010200   -2.41144754716409
H         1.75731929946663    4.21947562462235   -1.37489084683680
H         0.52067305470673    6.33127552307911   -1.75281658372445
H         0.68596845570016    8.16178188097693   -0.10386187945605
H         2.05597754384519    7.87144717548083    1.92404052180318
H         3.27592526241346    5.77483112058895    2.30706289182752
H         5.44289887473863    5.31649386651724    1.06800017435488
H         7.23554971346128    5.59718386849963    2.73095365753749
H         7.49807700861696    3.95593951909185    4.55259658392441
H         5.96556123294005    2.02725390220195    4.70450152229589
H         4.17281943552529    1.73861640025961    3.03328995512068
H         1.61603411826371    3.89066762500393    2.86229629036227
H        -0.08878650440898    2.57290123256070    4.05194854723969
H        -0.52679381781089    0.23780627446466    3.39567378591595
H         0.74841468837780   -0.78446183752601    1.54666320584987
H         2.47482122716007    0.54208447702464    0.35225677728319

