86
CSD_code = CEYJAS | q = 0 | S = 0 | Stoichiometry = C43H37ClNOP2Rh | MND = 6
Rh        0.27770858962784    6.00207784177312    2.61692465379161
Cl        0.06058915028143    5.55018751437070    0.22730335640534
P         0.42229700110505    3.74011148338777    2.76370337561221
P         0.26049633987940    8.24472291835827    2.46038564613127
O        -0.73677440915468    6.91254884867576    5.16631907821354
N        -1.92751036762053    5.96985942458613    2.79776365097362
C        -2.55903480987843    5.89625880675413    3.96977264510621
C        -3.94340695465700    5.84626872106574    4.06117172189739
C        -4.70505514498739    5.88751052693242    2.90855693718932
C        -4.04543947913907    5.99316428305329    1.69672278050500
C        -2.66403461377090    6.02828627197506    1.68925442199320
C        -1.72025886447672    5.92463675997722    5.22384792413878
C         0.51828794911711    6.48769644731016    4.63507189007355
C         1.26156462295136    8.73224240794544    3.89686591532156
C         1.39918799058520    7.69215562255410    4.82088251445005
C         2.25172864037851    7.85485822336331    5.90053522060505
C         2.95699154979899    9.03905205921556    6.05303053824205
C         2.79836948593098   10.07313197077007    5.14591204440449
C         1.95213288089153    9.92189936543442    4.05859338326547
C        -1.35164555933680    9.05938572153164    2.65687840397336
C        -1.81801447105990    9.50259077018822    3.88800703630002
C        -3.11046806639475    9.98478346203918    3.99884515962177
C        -3.94095991162023   10.01962475186976    2.89080165571224
C        -3.47787157621422    9.57716221624127    1.66110599903973
C        -2.18912290723098    9.09419395506369    1.54343178833781
C         1.00243678103217    9.18894292500926    1.09664515934424
C         0.70810925049768   10.53677172765640    0.90761729594717
C         1.33314992453934   11.24218635464175   -0.10382888152742
C         2.24870652829898   10.60999514350404   -0.93059099942298
C         2.53878483564915    9.26826402620021   -0.74750014067873
C         1.91936701471389    8.55795956021561    0.26517819141633
C        -1.24062167042996    2.99861663561857    2.82696016501648
C        -1.85362678917906    2.62870442092965    4.01946322830340
C        -3.17594234743419    2.22091643922467    4.02499782947872
C        -3.90096388967924    2.19269380439251    2.84560446803980
C        -3.30168058062221    2.57836865465555    1.65678092373345
C        -1.98176600661795    2.98664456103322    1.64599644066325
C         1.35678989317375    2.88909744977920    4.08949842106609
C         1.09866996300544    1.57000921364540    4.44879769182718
C         1.89056188307076    0.93924839771963    5.39043051058946
C         2.95675461418564    1.60974683114052    5.96811131403088
C         3.24049416283445    2.91060585517817    5.58789033052711
C         2.44741877579253    3.54591236600070    4.64886479997081
C         1.22505843172880    2.83230307166128    1.39679100107948
C         0.78390575545514    1.58307705675790    0.97741660129672
C         1.46964995142294    0.90548529646411   -0.01476461640371
C         2.60214130081892    1.46067538459503   -0.58526663854284
C         3.05452006146441    2.69743306692111   -0.15644948242035
C         2.37262209545611    3.37802124039627    0.83395997266533
H         1.77757786988300    6.06642203549484    2.50025369834056
H        -4.40894964946829    5.77760516020386    5.03233918246523
H        -5.78292321687369    5.84804830380609    2.95784254258803
H        -4.58586933195660    6.04498806432094    0.76540425778321
H        -2.11642093370608    6.08045771767788    0.75547380786809
H        -2.36036066197890    6.16106261240540    6.08110562062031
H        -1.26454722174238    4.93429740982555    5.38845875323438
H         0.87692654248318    5.65333288910179    5.26779248806767
H         2.37081351313647    7.05564740288879    6.61864807153691
H         3.63188589517823    9.15680380812844    6.88860229369096
H         3.34715564332799   10.99463811937355    5.27545032618444
H         1.84787870155512   10.71620020786548    3.33266332714812
H        -1.17080376107827    9.45664787794730    4.75193846170406
H        -3.47324349572347   10.33205526721144    4.95573060262672
H        -4.95088295175321   10.39198626357613    2.98421615066826
H        -4.12574427601849    9.60517591283361    0.79683484864772
H        -1.81478245766930    8.74155628210243    0.59057968639178
H        -0.01607552555557   11.02651253320712    1.54557846877343
H         1.10428630429003   12.28831199299887   -0.25028319009305
H         2.73080542980503   11.16522217046457   -1.72219617793689
H         3.24482944177343    8.77411806382147   -1.39850467231495
H         2.12204083691360    7.50576039770359    0.40719870800404
H        -1.29407468991525    2.64913517660806    4.94564594074400
H        -3.64230422376469    1.92639274272950    4.95436125195139
H        -4.93313902983969    1.87406288139511    2.85436378114143
H        -3.86771198508487    2.56586145998524    0.73677126089595
H        -1.51091865642438    3.31189087353322    0.72753882276714
H         0.28121201720039    1.03328386699299    3.98875377370548
H         1.67927369582164   -0.08285250583443    5.67023857573634
H         3.57129307040775    1.11336401967487    6.70468405967983
H         4.08328893606376    3.42986241708579    6.02055722700103
H         2.67142326975902    4.55694421865456    4.33390476825844
H        -0.10166046376654    1.14090430862208    1.41195826962855
H         1.11453934326247   -0.06022003844984   -0.34508291552220
H         3.12941664793279    0.93077815720760   -1.36512494744036
H         3.93708883712508    3.13427365446050   -0.60010142894941
H         2.71027953222136    4.35117841670623    1.16261297713885

