97
CSD_code = CEYKOH | q = 0 | S = 0 | Stoichiometry = C50H39As2ClN2O2Ru | MND = 6
Ru       11.33164067007451    2.04430632724068    8.32105331162906
C        13.66850969648893    1.46972986994007    6.71565765894556
C        14.64495985658710    1.21060445546579    5.72767052861833
H        14.32917504646031    1.18102510259786    4.69512737299000
C        15.95289735571281    1.00530871408677    6.07843331110013
H        16.68252572553513    0.81011408723296    5.30404050696866
C        16.38520413787348    1.03922291581321    7.41349205570508
C        17.83092209972311    0.80963247447836    7.73612241064806
H        18.15703298635515   -0.15934483058595    7.35897838020498
H        17.99434366095647    0.83826311141278    8.81026677473692
H        18.45144783136336    1.57467691742193    7.26947840748311
C        15.45978767019601    1.28760713632806    8.39768186965427
H        15.73759418692235    1.32616170591968    9.44098965386670
C        14.11768664733541    1.50283151813715    8.06839780727660
C        12.30139565954038    2.09288269982341   10.98908055725640
C        12.42660408545628    2.18760647613122   12.37609837037436
H        13.39491913785553    2.03406416181811   12.82838393895232
C        11.31917264002624    2.47456103097374   13.14490091325457
H        11.39295521457496    2.55165566229372   14.21832524904898
C        10.09875415417606    2.66513371026747   12.51259100960430
C         9.96067761094235    2.57383967643895   11.13648365425256
H         8.98353802395289    2.73291062408746   10.70103449817917
C        11.05488143538691    2.28316744295554   10.33365731540815
C         9.58315079183761    2.31138841367719    7.78209625477219
C        10.24932267287081   -1.16541276010022    6.88547548897109
C         9.93435261993704   -2.52091722970766    6.91641045856622
H        10.17630291251011   -3.10335839272440    7.80155810197863
C         9.31719767654884   -3.11476049823538    5.83027501191504
H         9.07248763582881   -4.16707484271327    5.85653847731636
C         9.01160972312024   -2.35966906745329    4.70832431561312
H         8.52770916442189   -2.82553310405583    3.86232861754703
C         9.32691334412222   -1.01207355419241    4.67032864571026
H         9.09062450952939   -0.42600117887832    3.79393006972922
C         9.94406190026681   -0.41594454787146    5.75743019465756
H        10.20843270129363    0.63752402139801    5.73926862971822
C        10.09995948883564   -1.11350849046508    9.85368528964828
C         8.92802046470017   -0.45411446177534   10.21058080135233
H         8.66043363510845    0.45209345158957    9.67274636921259
C         8.12950313208226   -0.94012608171385   11.22893450656064
H         7.22582483421394   -0.41780280157592   11.50642954924200
C         8.49718060441099   -2.09644859617733   11.89835839367777
H         7.88154044280180   -2.47528072580980   12.70076852748893
C         9.65340832720713   -2.76797241740206   11.53887225188397
H         9.93528130304016   -3.67372945241611   12.05674504216580
C        10.45387944579514   -2.28114958723432   10.51844390745854
H        11.36137755179677   -2.80825094810000   10.23954572030912
C        12.80504795753592   -1.26630059734471    8.46376487662256
C        13.51480962311302   -1.31667298888088    9.66182790210772
H        13.05782778427406   -0.92657579571170   10.56873487849426
C        14.79508260090977   -1.83833928758936    9.69150416179102
H        15.34090643670069   -1.87325817031019   10.62335164829454
C        15.38202160552575   -2.30120522618086    8.52486472889100
H        16.38646781760547   -2.69758219468960    8.54761248159065
C        14.68619407604840   -2.24738226744017    7.32923750756110
H        15.14740050509814   -2.59882051729365    6.41759398400526
C        13.40292017021212   -1.72991805076353    7.29693438665983
H        12.85706969648980   -1.66946524398320    6.35971610677557
C        11.53767541731777    5.09866547071816    6.27566878005821
C        10.89148479101499    4.34656419240726    5.30463614792183
H        10.65903306398194    3.30644474691851    5.51405958416035
C        10.56757556136541    4.91523064516093    4.08384701133371
H        10.06630170090238    4.32668952460181    3.32899171351949
C        10.88675202845992    6.23853462874873    3.83164587603404
H        10.63350944228417    6.68377443417717    2.88058230752005
C        11.53305985212867    6.99535914601022    4.79731293685398
H        11.78234944520350    8.02769218508273    4.59753266235720
C        11.85765537411027    6.42856253243667    6.01623697245538
H        12.36342182712547    7.01241906946266    6.78106070488052
C        13.89909027488370    4.58254338442644    8.06746828853478
C        14.52839591609559    4.60075643055961    9.31059981587699
H        13.92238282897663    4.58399753524755   10.21402168675193
C        15.90867625058887    4.62158638580375    9.39233647967180
H        16.39067904040325    4.63324340575205   10.35930600856718
C        16.67144550208270    4.61186914125412    8.23564425678196
H        17.74952747962843    4.61610645441609    8.30128219908806
C        16.05366700965499    4.58697768897978    6.99683615929039
H        16.64804011511655    4.56917153328122    6.09480023625961
C        14.67241604151908    4.56926373998004    6.91162432616284
H        14.18123204539669    4.53216911910922    5.94348986123204
C        11.28442994419910    5.67067138636802    9.17405881583674
C         9.94812760509208    5.54396400243859    9.53926481137941
H         9.38668464208210    4.69351232572862    9.16062128876764
C         9.35424790026414    6.47683026484555   10.36896619435646
H         8.31839587617922    6.36774708956576   10.65473024039849
C        10.09503577388037    7.54943143405660   10.83901894807677
H         9.63793051263041    8.27620663990470   11.49416709383029
C        11.42200583593607    7.69053457155591   10.46975867124473
H        11.99740228984733    8.53029840008699   10.83263404747771
C        12.01716499818110    6.75614872559723    9.63832241041213
H        13.05929675016300    6.86604477476507    9.35363423535965
N        13.13317914694712    1.76168944102828    8.98396587461234
N        13.41251746353088    1.81220734204361   10.22729559213426
O        12.43119643435624    1.66712210847485    6.41984191706660
O         8.47242897029876    2.47297103061790    7.50297210099740
Cl        8.70384186144981    3.02726653410787   13.47370214250988
As       11.11787722622338   -0.31509915914565    8.40184748947668
As       11.98441707139648    4.29691389458606    7.98845126645074

