23
CSD_code = CEYMIC | q = -1 | S = 0 | Stoichiometry = C8H8AgN2O4(1-) | MND = 2
Ag       -0.00020036971919    1.91537021550283   16.32445397662232
O         0.00030053188206    2.68055716422516   12.42774074902660
O        -0.00026171172728   -0.63882237312880   15.48619573356090
O        -0.00031087667902    4.47580896406076   17.19983796737879
O         0.00020226334674    1.10303253455510   20.19797840162561
N         0.00018523765944    1.23317768286519   14.20989711081574
N        -0.00007335218367    2.58204168515774   18.44266768946598
C        -0.00026467231999   -0.09739398358232   14.39020000524938
C        -0.00007563157018   -0.84389705812818   13.05513733619921
C         0.00007537456451    0.28026493579588   12.03504425852709
C        -0.00003997829861    1.56272589539936   12.89781191993825
C         0.00054073006467    2.22907310594572   19.74866915408239
C         0.00004014667269    3.49554227849044   20.63429436982095
C        -0.00006725228969    4.63783525410564   19.63465183991199
C         0.00018060558243    3.91547967299391   18.28614497579261
H         0.88254091120603   -1.48221892765961   12.99957272267457
H         0.88267066582244    0.28348515712810   11.39420261386764
H         0.88258763493997    3.48088388963467   21.27505620103809
H         0.88258252007059    5.27501183395552   19.70220046127307
H        -0.88273955848013   -1.48212117406680   12.99941250377829
H        -0.88243625089666    0.28360062293327   11.39410351907950
H        -0.88257077989610    3.48072416832473   21.27499585164753
H        -0.88286618775098    5.27483845549215   19.70223063862368

