69
CSD_code = CEYPIG | q = 0 | S = 0 | Stoichiometry = C28H35Cl2N2PPd | MND = 4
Pd        7.71445214723865   11.92640044167030    4.36844353080347
Cl        9.99443844794201   12.17950890751719    4.17963126661678
Cl        7.40602808686173   14.08054116446830    5.04339741748042
P         8.08902268980861    9.82976950628781    3.68414898005494
N         5.26133875774179   11.52168827491619    5.84014724884205
N         4.91622615940679   12.03205134617977    3.61527533474016
C         5.74003219157619   11.79506783444944    4.62959605405403
C         3.83526321537774   11.49749851618450    6.12145619307647
C         3.13122380124645   12.47903914809435    5.19897671593653
C         3.47123162107842   12.08886234796375    3.76988300949838
C         6.16628154457089   11.37563329995359    6.98383412870743
C         5.91795665421770   10.06360316618744    7.72558768957458
C         6.08019006210991   12.58654349868230    7.91305430492648
C         5.44975128964388   12.41723924426342    2.30655906541762
C         4.76013526052625   11.65132476415902    1.18005033410612
C         5.37134192074495   13.93234375950956    2.11412829265263
C         8.60723860462249    8.77577112058676    5.07000092061974
C         9.22004213212097    9.40192414292083    6.15270906823521
C         9.62063871323589    8.65711456803305    7.24724756714999
C         9.40680944427003    7.28811106874127    7.26930437670728
C         8.79577577711557    6.66233352252020    6.19427222380336
C         8.39502738656799    7.40014218118792    5.09454565590474
C         9.36423802123551    9.63728775658840    2.40752750979973
C         9.43994363517400   10.63965232461545    1.44365538090899
C        10.37776437428999   10.55717803137096    0.43333295333579
C        11.24614505176864    9.47686150066419    0.38417895052971
C        11.17666000817122    8.48349632409872    1.34614866730098
C        10.23633702397078    8.55825835275540    2.35989002500859
C         6.69166993041082    8.88742082755344    2.97939847907160
C         5.58245744580744    8.66697505998796    3.79297757896547
C         4.46447048659512    8.02429452830785    3.29932800026562
C         4.43714741874239    7.59942777315756    1.97907716804357
C         5.53320892812567    7.81920777339994    1.16227000316339
C         6.65585412877720    8.46295062619864    1.65624190073875
H         7.19692774524278   11.35572007637382    6.57065112237216
H         7.50760105573060    8.63419999510155    1.01324757367837
H         3.66785703899410   11.76861283772533    7.16345356689213
H         3.44410612509246   10.48414938444086    5.96090847356443
H         3.50065055819564   13.48651173534812    5.39774345453229
H         2.05368393024377   12.45665871118932    5.35827734730083
H         3.03888805942025   11.10876891463028    3.52995364896100
H         3.06520541493725   12.82317094758042    3.07362803717235
H         6.00411821081564    9.21371746428942    7.05112370609668
H         4.93517582066439   10.04611439247463    8.19157976280107
H         6.66594691530877    9.94658450685747    8.50479170965195
H         6.25410453021570   13.49218442204442    7.33482442265032
H         6.85344857584028   12.51227119047203    8.67256998199658
H         5.11691010133547   12.65683168286621    8.41359485661417
H         6.52531471520948   12.13839744370986    2.30980668853353
H         4.76529453603348   10.58328025378037    1.38543467570375
H         5.29561733109378   11.82295834266512    0.25027343053541
H         3.73258488718943   11.97927751283459    1.04125517670994
H         5.89674224159257   14.42458340775957    2.93236913735588
H         4.34261101386744   14.28543676900820    2.09017215411302
H         5.85015500220673   14.20829315377337    1.17856385859548
H         9.39752900021653   10.47561672929099    6.11603533503360
H        10.09966080918826    9.14379813497001    8.08377171657297
H         9.71674776166384    6.70566965354196    8.12452724550193
H         8.63111284714982    5.59464870636516    6.21244119403275
H         7.91154574204318    6.91344318525008    4.25792391955789
H         8.77921481489942   11.50070225034525    1.52003988666889
H        10.44433483073640   11.33966389559045   -0.30803423696153
H        11.98718297873917    9.41734902911777   -0.39947012191449
H        11.86265061736220    7.64950997521110    1.31350380487046
H        10.19013934060118    7.79028350740500    3.11932854840941
H         5.61595433354436    9.00231542188064    4.82101568106624
H         3.61169202666639    7.85031887150465    3.94016190122751
H         3.56269786235502    7.09952482931467    1.58964953381590
H         5.51465086450856    7.48940996210788    0.13390681024724

