84
CSD_code = CEYPOM | q = 0 | S = 0 | Stoichiometry = C41H36ClNOP2RuS | MND = 6
Ru        8.20506705803357    7.85813517721923    9.94205963470649
P         8.35117158840410    7.64923038603491    7.64254080366121
P         8.14902997729209    8.15378597322426   12.23946581791431
S         9.55628737910935    5.79670831236718   10.23173178601318
Cl        7.89168570268115   10.18993869925039    9.62160421199390
C        10.92659532256337    6.96229807118559    6.81030299203195
H        10.64742094252407    5.94616170790496    7.05816286244484
N        10.26794239165183    8.21431334965827    9.99087880964755
O         5.36222057298160    6.93150625458878    9.94610272463132
C        10.76311344329898    8.15197762039560   13.19314128198898
H        10.72225970150019    7.08020137909778   13.04179579819084
C         9.63411082867370    8.92825003552352   12.93651076817986
C         8.43513810567516    6.56106894981217   14.56756786505727
H         9.01386926050134    7.36658148897166   14.99759640585367
C         7.26134258522135    8.69829309037518    6.62215924004431
C         6.45100777923928    7.31306022900729    9.93692901292463
C         7.95949359523780    6.01628419917428    6.92405682814263
C         7.95400446493923    6.65443492831714   13.26483636577311
C         7.87404971630784    4.52943286005725    5.03662785074790
H         8.07581281784049    4.33172178735334    3.99376561454311
C         7.23454710021773    5.59128262161803   12.72938421033005
H         6.87812925525157    5.65326900524772   11.70925618224215
C         9.99867136787366    7.98898520238260    6.96181643249415
C         6.80869782009344    9.17840889244440   12.93367013338834
C         9.69595927055737   10.31054438646568   13.09125898515926
H         8.83244621362417   10.91312194751898   12.84457438729947
C         7.47529115700330    4.36988031951812   14.77650471873933
H         7.29352005074913    3.48265358055708   15.36488539056507
C         5.15220212524516    9.83605827043803    6.39808204564191
H         4.21048438543933   10.14581375571597    6.82598055864176
C         7.28100046975492    3.55634172417146    5.82586775131946
H         7.02004413152503    2.59981165952051    5.39757329974220
C         6.99633107718697    4.45533143951485   13.48013794082272
H         6.44047796086574    3.63485588901034   13.05143973030532
C         8.19642915474748    5.42239506888740   15.31515553305476
H         8.57823834409956    5.35666264295090   16.32387107739825
C         7.02938478184224    3.81125723384467    7.16266314560338
H         6.57311582030778    3.05446191426274    7.78318339681363
C         7.36612859530337    5.03668673349869    7.71024079084581
H         7.18759715727139    5.23001436824587    8.76043830694154
C         7.57910832784311    9.05225458382678    5.31352785251523
H         8.52968295049360    8.76943972074256    4.88327536419082
C         6.03981808428723    9.09446711049590    7.15568141575443
H         5.79867835481411    8.83917747451780    8.17858337229735
C         5.47377289138961   10.18559748457685    5.09768359309007
H         4.78349567494088   10.76800735622823    4.50531428390686
C         8.21045013139329    5.75442867304813    5.57940358038549
H         8.67836534461981    6.50551492433247    4.95962083570360
C         5.77620147405359    9.63234356057941   12.12270011412241
H         5.79507692603463    9.42180745709219   11.06187103350116
C         6.79755489076755    9.48374855906391   14.29325291246343
H         7.59931599698469    9.14185283387020   14.93185346914800
C         5.76773922882504   10.23317487003119   14.82759933864985
H         5.76730434477539   10.46918737965027   15.88199065533098
C        11.92509724262277    8.74981296807312   13.64358325560764
H        12.79694018684151    8.14496290348470   13.84715051777399
C         6.68811838702393    9.79337872643447    4.55944904616168
H         6.94589711496433   10.06865681074792    3.54678981003902
C         4.74674313812862   10.38356061801560   12.66333561013103
H         3.95176137036363   10.73846038875246   12.02465842914808
C         4.73889470631347   10.68271416605572   14.01432853156347
H         3.93580452334380   11.26931750980176   14.43578406883233
C        12.19660221833279    7.24511619964264    6.34019333114486
H        12.91290637104364    6.44573584331025    6.21511248545524
C        12.55111820661875    8.54984923880734    6.03314516806665
H        13.54191497328953    8.76632734359849    5.66116654098342
C        11.97246437053391   10.12311416152677   13.82982755994033
H        12.87987894730533   10.58726854583275   14.18859440012656
C        10.86145458425442   10.90173746335023   13.54637633032742
H        10.90498523112678   11.97357239548125   13.67346467503492
C        10.36995075487904    9.30413024261937    6.68882170551286
H         9.65342165112680   10.10084662291990    6.84455106189131
C        11.64067428835531    9.57899258042902    6.21718276548773
H        11.92404973584457   10.59774624858520    5.99632410761755
C        10.72456066771842    7.02706585730233   10.15944332067986
H        11.78089242853476    6.78027380565403   10.25968194631474
C        12.56286008481622    9.07689021514534    9.66016647366407
H        12.75914499928743    8.52222035132506    8.75138909803275
C        11.12189302600705    9.37795314328037    9.92780669210846
H        10.72439374647389   10.02032355747969    9.13013303225701
H        11.01748493071008    9.93486791754974   10.86686991460443
C        13.55225230363537    9.46356369972123   10.44283537589543
H        13.37098821217472   10.01782368265129   11.34936298417782
H        14.58156750447841    9.25229364902902   10.20649324844882

