58
CSD_code = CEYRIH | q = -1 | S = 0 | Stoichiometry = C18H18FeN9O12(1-) | MND = 6
Fe       -0.00010427302667   -0.00000270951733    6.33142940100573
O         1.49056830523366    1.46144651396955    4.68915969867564
O         0.76105006958768    4.09075420728449    4.04155629361209
O        -2.70388059279791    5.63916460051491    6.51847238298583
O        -1.24002981954987    1.42680729518092    7.35161283182389
N         0.48301787359678    1.47577845066776    5.39964811691878
N        -0.99442510133493    4.83589560942939    5.27355394003242
N        -1.99582827774882    3.53444320889302    6.94686283934457
C        -0.23203862134955    2.60707124013049    5.61964612193073
C        -0.05991845354260    3.84421001234879    4.89607906367828
C        -1.94736341444699    4.72839657218894    6.24808019191632
C        -1.18329993681417    2.46815992554772    6.66392862478008
C        -0.95771659692512    6.10180176910066    4.56361831446523
C        -2.99246308266023    3.42321859043642    7.99406741962220
H        -1.92570530129042    6.29276527975939    4.10110738817687
H        -0.73386537532147    6.91255485477656    5.25756135842671
H        -0.18047541002147    6.02383392759128    3.80660542275270
H        -2.84667382087315    4.21864060732451    8.72513948217163
H        -3.98964288696247    3.51935713929784    7.56424745017768
H        -2.87035796732927    2.44736774178302    8.45701378223488
O        -0.61533767619354   -1.78735871509438    7.35140941261780
O         1.85556432407143    0.36119419495930    7.35097738831728
N        -1.51937315326767   -0.31981725377069    5.39918342678142
N         1.03655007870012   -1.15548062858384    5.39881628424321
C        -1.54575570789332   -2.25874563959514    6.66395983401064
C         2.72894265047446   -0.20936311706862    6.66392666812582
O        -2.01100860514837    0.55999121529702    4.68900486165568
C        -2.14170873473247   -1.50449677740324    5.61960357937471
O         0.52033831559717   -2.02112405203001    4.68866163457447
C         2.37365484510025   -1.10246668054527    5.61950718318507
N        -2.06280338902143   -3.49558562995553    6.94688668856803
N         4.05859782322823   -0.03899088170624    6.94703852564818
C        -3.29937922998491   -1.97386527709610    4.89635439044376
C         3.35890213912241   -1.87065006051505    4.89653005540631
C        -3.12101789425677   -4.05065053133947    6.24813545173133
C        -1.46796571996993   -4.30308342620835    7.99396755461573
C         5.06835259383244   -0.67814436350960    6.24846202443926
C         4.46062437801035    0.87987693681769    7.99411514245999
O        -3.92333354895479   -1.38627188422698    4.04172183326750
N        -3.69073815402538   -3.27910496810395    5.27371583778318
O         3.16203864771118   -2.70423259887078    4.04144066089880
N         4.68498192742319   -1.55706046403351    5.27384487736160
O        -3.53138325122699   -5.16126236006002    6.51847670252727
H        -2.22960039282161   -4.57462024633421    8.72511543978915
H        -1.05259946651502   -5.21467434210252    7.56405321402737
H        -0.68392264470698   -3.70934776059664    8.45683600554725
O         6.23545671055911   -0.47801716724391    6.51854745525036
H         5.07641992358916    0.35592773368822    8.72530013711749
H         5.04260974923803    1.69530245333287    7.56434576249447
H         3.55446649349313    1.26212905826655    8.45695512848542
C        -4.80534298462913   -3.88033934874892    4.56374020184485
C         5.76298456230040   -2.22157116567120    4.56366622665159
H        -4.48663269726496   -4.81407995255406    4.10117603080119
H        -5.61939586696515   -4.09194708582559    5.25768587372055
H        -5.12648185242065   -3.16823017233866    3.80675005097731
H         6.41238394194172   -1.47872857696470    4.10115477348482
H         6.35324389791380   -2.82091498868779    5.25751544038522
H         5.30682065127032   -2.85566031228874    3.80662811665332

