45
CSD_code = CEYSIL | q = 0 | S = 0 | Stoichiometry = C18H19O6PW | MND = 6
W         5.78118728870083    5.73867148978206    7.43087099878918
P         3.58572461474327    4.62879527099695    7.71531916907796
O         3.49473793943755    3.12697937242467    7.09648933488213
O         8.57188160218080    7.04787225188710    6.94406475712511
O         6.59094937200439    5.81483780518567   10.46041096418471
O         7.26073844903485    2.98705407261680    7.15964592309953
O         5.34913347065175    5.68544261809455    4.32082424073614
O         4.71929028607611    8.68522752360544    7.61749256659532
C         3.32892332014317    3.06240554024530    8.52859148058562
H         2.32275364986503    2.77956924459341    8.83036374900716
C         4.44431402220011    2.52447542546023    9.34902596399225
C         4.69347460848308    3.13399069937679   10.58543830470779
C         5.76415016569147    2.69526683124064   11.35022374118738
H         5.96894704641373    3.16928718543018   12.29856210263626
C         6.56985249087841    1.66361644148134   10.90539841441659
H         7.40957232280305    1.33890936975889   11.50127924679686
C         6.28654077493403    1.03448786635579    9.70838249078280
H         6.89926028447213    0.20918732214312    9.37705042306353
C         5.22028909928147    1.44463140613787    8.91853195845621
C         3.80363851691990    4.22913144936705   11.09106848143255
H         3.75355946157881    5.05761586290139   10.37975235265255
H         4.17477303777577    4.61255567654266   12.03786920586893
H         2.78985590232225    3.85679461046815   11.24125630881164
C         4.90892649080570    0.71286404034388    7.64927588779462
H         3.84145811541512    0.51674502166027    7.56849650644143
H         5.44558283896424   -0.23219283662455    7.61789178715785
H         5.19953294769253    1.30159850017966    6.78082613207920
C         1.91177729759528    5.42456162191931    7.38510561466761
C         2.04997801394238    6.06349243381701    6.00313402076101
H         2.86222200442114    6.79199676692781    5.99508529677086
H         1.13041286280239    6.57488014818203    5.72220745616031
H         2.26383274747950    5.29925808273749    5.25551108974267
C         1.70412301946573    6.49500085375245    8.45309446805659
H         1.54575972587281    6.04221161091139    9.43093606847798
H         0.83494145106384    7.10495548156998    8.21302253630786
H         2.57393140125659    7.14913757809089    8.51400884464910
C         0.76440314684342    4.42091892075476    7.38486543214905
H         0.99553393204163    3.57044871170966    6.74497939709299
H        -0.13620552426310    4.89695314467241    7.00009873118929
H         0.54660311996196    4.06376798916575    8.39000593356672
C         7.54840257830647    6.57255483502588    7.12427684112962
C         6.22000627045446    5.76627296917693    9.38196284577136
C         6.66158822983722    3.94868939326000    7.28142331295169
C         5.46393341947115    5.70487443535901    5.45581950380669
C         5.03540818404269    7.58710496126209    7.56236011456371

