79
CSD_code = CEYWEK | q = 1 | S = 0 | Stoichiometry = C37H34ClN3O2PRu(1+) | MND = 6
Ru       11.67204287581226    7.47348797004502   11.09269630389451
P        10.87133664304329    6.46095673455600   13.05010013477717
Cl        9.39937080806882    7.95727283126929   10.65212133865991
N        13.63331359815677    7.34937808851797   11.56067534830715
N        12.38130052561582    8.85175438785173    9.55148004354742
N        11.44838076070254    5.72836138634099    9.97226821057237
O        11.84606452344174    9.29725988946057   12.25027403934854
O        11.81359376716629    6.95870321826248    7.10079468790522
C        14.51857299840916    6.45039099043459   11.11117742679490
H        14.12264673507296    5.64890404431980   10.50263293355034
C        15.86857033921392    6.49973526129845   11.39021053393946
H        16.52368939097415    5.73795290132344   11.00062161708429
C        16.35748111429020    7.53608481751819   12.17268385957063
H        17.40444550038626    7.60778240836468   12.41666917324744
C        15.45402100407560    8.48148469910529   12.62874364069935
H        15.77965051736485    9.30961782589505   13.23831198495635
C        14.11102613345957    8.36155792686730   12.30822730488686
C        13.12443855407886    9.36464570791421   12.85878254002402
H        12.96702278528776    9.13789444604598   13.92495006698632
H        13.53444449220665   10.37913478669062   12.78137196635250
C        11.55470513752150   10.31058999874179   11.30201169813073
H        11.76008502005479   11.30178493980140   11.72538679376744
H        10.47269133276188   10.21162525718110   11.11211180184586
C        12.27380536104978   10.11424212361507    9.99587664128761
C        12.74903990572799   11.20544762876803    9.28481619557271
H        12.63527616592810   12.19875255393960    9.68882906422106
C        13.34567072497213   10.99941902695945    8.05278444583901
H        13.71511336792200   11.82826566839862    7.47070070234308
C        13.44526869170071    9.70037322777729    7.58865054985237
H        13.88400128531566    9.48655618049912    6.62789758605675
C        12.96334234340349    8.65181804763250    8.36254434748963
C        13.00221283794072    7.25346446876545    7.79875406535333
H        13.79768134112275    7.17040731171448    7.05536952286308
H        13.18346579448457    6.52505913305012    8.60157176046394
C        10.65921594183949    6.86556985625713    7.92197873086873
H         9.82564737736970    6.74718955860138    7.22930589950217
H        10.50550614298632    7.77961102282694    8.50442647715620
C        10.78588206683106    5.64658799824251    8.80373950960821
C        10.36908458568212    4.42566534178625    8.28287634388344
H         9.82684878855073    4.41826765386344    7.35119390179310
C        10.65904048365246    3.24494766313338    8.94015255750291
H        10.32850761838065    2.29521787772247    8.55219329146508
C        11.41890213249373    3.32536758207068   10.09665739189821
H        11.71870720346554    2.44305641682175   10.63782446940439
C        11.77364941517973    4.57176794621736   10.56830994881989
H        12.35505910889448    4.65296479441512   11.47739527066026
C         9.54679119952335    7.25661770128107   14.02399437991031
C         8.92187514376718    6.50297093992367   15.01813926787918
H         9.21123819620608    5.47427788901373   15.18007851023352
C         7.93119912229560    7.06765788051365   15.79791063595262
H         7.45006419117089    6.47550242323828   16.56162803952545
C         7.55256736621508    8.38616749855697   15.59834278205691
H         6.77246087676903    8.82181502477659   16.20365981943718
C         8.17593393176885    9.14044432499030   14.61988806809163
H         7.88384941561655   10.16752214118242   14.45988113796212
C         9.17156014592435    8.58088623625750   13.83759178952622
H         9.64289515671801    9.17048766106940   13.06827646179073
C        12.20383964735190    6.34526256712239   14.29824321494426
C        12.20157097821367    7.17437454926656   15.41766553164883
H        11.35527271411711    7.82062426802735   15.60488444367982
C        13.26799370659725    7.16769187631658   16.30028438649479
H        13.24661219799673    7.80876240135910   17.16881041927713
C        14.35632835540181    6.34203459750219   16.07430258768311
H        15.18658778181526    6.33744554163866   16.76329236085673
C        14.37124378574800    5.51650062193071   14.96185656644845
H        15.21367954468184    4.86546487037606   14.78152860564725
C        13.30689383022009    5.52138854071896   14.07972344342437
H        13.33513443486351    4.86675855949301   13.21946404169538
C        10.15515726919327    4.78969713764976   12.92174820801098
C        10.57873317680979    3.68845115458869   13.65692415604489
H        11.39210832936200    3.78163427924523   14.36289043251100
C         9.94263887664659    2.46948022789602   13.49389215754336
H        10.26941670559408    1.61626697277406   14.06942820123004
C         8.88733989584272    2.34390117971574   12.60571772194403
H         8.39562012560435    1.39067563595031   12.48568017963140
C         8.45522081770332    3.44382770173322   11.88070956008983
H         7.62472314815316    3.35111801384139   11.19754795040601
C         9.08540392969166    4.66295843799595   12.03685606086882
H         8.75502275984819    5.52845154256367   11.47680675421679

