39
CSD_code = CEYYOV | q = 1 | S = 0 | Stoichiometry = C12H16CoN6O4(1+) | MND = 6
Co        0.90072220059740    4.30011549375722    0.48408768247807
O        -0.57263609195108    3.18000006144814    0.27625982651812
O        -2.02145746650175    1.89670510484691    1.36128961943770
O         0.61336490820268    5.20035415186811   -1.11209479318761
O         1.43105448786061    5.55659089074514   -3.13797448859844
N         1.13634045539042    3.28803231374199    2.18904040274326
N        -0.27497144764661    5.52362943651212    1.36866402376025
N        -1.83502381416533    7.04772642586278    1.44827572521017
N         2.48972179720417    5.39857975347125    0.66762365213073
N         3.77616836957475    7.08719336177468    1.19981405550345
N         1.85953674690059    3.02597337587037   -0.68079864281996
C        -1.05342630353936    2.60667337980058    1.31613828048684
C        -0.22796018995132    2.91328929268766    2.61830255811623
C        -0.88921952316475    4.07864266608818    3.34745516264980
C        -1.08877223747447    5.24773720178920    2.43848590866816
C        -2.06498805736708    6.20240554565353    2.49084311243949
C        -0.75998452448887    6.60984987827996    0.78940010402773
C         1.40239312808313    4.95888745543012   -2.09465559722359
C         2.42656601344799    3.81922576432662   -1.78289939416509
C         3.73471276389681    4.47012467444102   -1.34004207618470
C         3.53352451854845    5.44196851303371   -0.22198568212196
C         4.33773928415713    6.49754492397931    0.11003176952495
C         2.66657574051612    6.40609439459936    1.50557652571884
H         1.66644994241587    2.42887851454833    2.03783557514358
H        -0.22383079804510    2.02858051795408    3.26307957040826
H        -1.86196417160809    3.75405616354804    3.71927675249129
H         4.13106214276925    7.90263095603857    1.67623098181477
H        -0.36070180170845    7.05649945958647   -0.09942926601069
H         2.59750279667949    3.21517868953219   -2.68036554079463
H         4.16663027294810    5.00205689180066   -2.18924365697739
H         5.23727557847730    6.85396774198786   -0.34615256316129
H         2.01792830091841    6.65572676316934    2.32144873765847
H         1.60313938859242    3.77969555467180    2.95351669338508
H        -0.28436821500295    4.37313553297830    4.21349440107618
H        -2.88088061201452    6.32355114458615    3.17214955282037
H         1.09105524283971    2.46057716068607   -1.05696101365651
H         4.45294843913756    3.70158205928077   -1.03194833674257
H        -2.40724564517356    7.83860729211109    1.19246345796091
H         2.56781838064617    2.37623149751291   -0.33293308052792

