99
CSD_code = CEZCIV | q = 0 | S = 0 | Stoichiometry = C48H40Cl2F2N6Pd | MND = 4
Pd        7.88506731093451    4.48832282179915   -6.53626609484066
F         8.70886268811112    6.32029926440029   -4.60759446102479
N         6.93282383040979    2.45501762895028   -4.43798932172742
N         6.53456870574125    2.35376481936232   -3.14000516000184
N         6.79550136782149    4.43510947606749   -3.74240533303383
C         7.11510004668041    3.72303567324101   -4.84719080078923
C         6.81729887492814    5.81721017531729   -3.33311746987487
H         6.31239263871594    6.42484168718124   -4.09432243814060
C         6.07251673373423    5.77343730139520   -1.98233987619747
H         6.52359032719094    6.44556573128782   -1.25587635252625
H         5.03924545983888    6.08555295927273   -2.13759282448668
C         6.10623783149262    4.30621799893262   -1.50145719148908
H         6.87453101597483    4.14065322873249   -0.74372639868070
H         5.15064601508597    3.97802859905814   -1.09437012949605
C         6.45600045580791    3.57935960247883   -2.74203234391018
C         7.14038710358640    1.27911090036695   -5.17831817490510
C         6.76258441239908    1.22880353192459   -6.51256146122510
H         6.27481449416325    2.08563931908618   -6.95518379770057
C         7.00761766765007    0.07929530681305   -7.24036417324595
H         6.73400463140378    0.03854590405918   -8.28442079734507
C         7.60193092949103   -1.01551313074198   -6.63457659411725
H         7.79572753092072   -1.91005900932060   -7.20806171424351
C         7.94621327280055   -0.96674177407390   -5.29399533410660
H         8.40573315437965   -1.82224561211947   -4.82157214777059
C         7.71869292571072    0.18122551885641   -4.55805790783171
H         7.99152672101815    0.24549515951987   -3.51608363889528
C         8.29033083081962    6.29628298992936   -3.25801133393820
C         8.48061455140495    7.70549583217040   -2.73671521619543
C         7.44139856039521    8.61988507265083   -2.62599249231458
H         6.43499664054255    8.34672364396658   -2.89894904543089
C         7.69047624234094    9.90409279474302   -2.17076467151400
H         6.87253999473606   10.60347725115262   -2.08165134316241
C         8.97567483969248   10.29418806998359   -1.83904450274325
H         9.16388006011680   11.29574763581390   -1.48214500688921
C        10.02093028087399    9.39694020589163   -1.97897496930940
H        11.03033102236243    9.69679756095540   -1.73992401151124
C         9.77519285906128    8.11269443206549   -2.42712494278075
H        10.59277162460048    7.41625189445539   -2.54128146345412
C         9.13827950271789    5.27739566614770   -2.52410908409197
C         9.76688742959774    4.25588238243658   -3.22519939870536
H         9.71474725730506    4.21394898625239   -4.30640623694180
C        10.47372473566495    3.27742100952680   -2.54837171945319
H        10.94526282845853    2.48804767037342   -3.11361076449926
C        10.56599629116503    3.31421961332560   -1.16852439259492
H        11.11396915170559    2.54923577039219   -0.63881760566009
C         9.95838057305063    4.34285563055652   -0.46657886942370
H        10.03716986137665    4.38535529261420    0.61006193761422
C         9.24678728172509    5.32058444291498   -1.13810754523963
H         8.78469491174445    6.12550533622347   -0.58382466978763
Cl        6.24536245242664    6.12798626283409   -6.53658090388119
Cl        9.52324451679250    2.85055934611405   -6.53597768719631
F         6.05344396202524    3.66476910374604   -8.46465037874800
N         9.91873811117790    5.44093937261351   -8.63423239209521
N        10.01995644249450    5.83918469382781   -9.93223071785389
N         7.93862990849369    5.57818610273028   -9.32981611158228
C         8.65070857166566    5.25860018917386   -8.22504881011048
C         6.55651760321582    5.55633185313302   -9.73910804462831
H         5.94888925928095    6.06124429700804   -8.97789718924200
C         6.60027243681477    6.30108861228676  -11.08989266601427
H         5.92812112210548    5.85001132075686  -11.81633380164474
H         6.28817367172275    7.33436380439665  -10.93462909955343
C         8.06748258781429    6.26735060859637  -11.57079650893064
H         8.23305430423965    5.49898113990961  -12.32845053700715
H         8.39563233686948    7.22291086681911  -11.97798225231644
C         8.79435127421672    5.91770425234959  -10.33019481643091
C        11.09469430964510    5.23340166815263   -7.89395129686520
C        11.14506005444463    5.61122886071081   -6.55971548892507
H        10.28821335993262    6.09892254240176   -6.11703239079920
C        12.29463066052380    5.36625255470586   -5.83198835259541
H        12.33540947252687    5.63983691297850   -4.78792519162319
C        13.38943463122804    4.77198975031429   -6.43783116847991
H        14.28403534057361    4.57827411386692   -5.86440268688176
C        13.34057883111864    4.42761469653056   -7.77839156272760
H        14.19605901964796    3.96806750688007   -8.25083235380257
C        12.19254214631325    4.65506135936547   -8.51425637896729
H        12.12817484334130    4.38213791724467   -9.55620527941302
C         6.07744163336007    4.08331126343218   -9.81423079181585
C         4.66820963332255    3.89307860928405  -10.33550344432002
C         3.75385521850137    4.93232825537148  -10.44624508381693
H         4.02708316165942    5.93872317015527  -10.17333314833234
C         2.46962484613041    4.68330382031202  -10.90142932282912
H         1.77026370523535    5.50126702302979  -10.99053893847715
C         2.07945303651310    3.39811576920927  -11.23309570668204
H         1.07786739011470    3.20994653829739  -11.58994437342443
C         2.97666030514955    2.35282403357853  -11.09314304929874
H         2.67672949110280    1.34342596609853  -11.33212566623018
C         4.26092910045885    2.59851933679904  -10.64504162625258
H         4.95733376200463    1.78090257483167  -10.53088101519313
C         7.09629655674721    3.23534283156975  -10.54814808143884
C         8.11779259237595    2.60675642627675   -9.84702488221962
H         8.15973289304874    2.65897892704355   -8.76581702560911
C         9.09623354223031    1.89987377550378  -10.52382218181965
H         9.88559071081181    1.42833333205007   -9.95857443489370
C         9.05942686260558    1.80752083522962  -11.90366908393900
H         9.82440482410456    1.25950854764232  -12.43333703356940
C         8.03079281177247    2.41510291515032  -12.60564944632172
H         7.98826509788477    2.33623362589469  -13.68228187720642
C         7.05308329596140    3.12675290685695  -11.93414201298712
H         6.24816482122761    3.58884754055034  -12.48841841910842

