58
CSD_code = CEZCER | q = 0 | S = 0 | Stoichiometry = C27H25ClFN3Pd | MND = 5
Pd       10.02437568891441    3.07340612141935    4.41136211647491
Cl       10.08617146369028    1.28996104745042    2.94302664519968
F         8.01482347438459    6.02867497203752    1.23759666769408
N         7.05763070412146    3.31942250664330    4.38252916403064
N         5.92940501805507    3.45631216103553    3.62955444289832
N         7.74022619763927    3.61497909249547    2.41754444253195
C         6.37842376679961    3.62686899995867    2.43054854115811
C         5.84250654461503    3.82021114629111    1.06501335499795
H         5.50402440052022    4.85195689503609    0.94821469890923
H         5.00768593907400    3.15640056713914    0.84950543312626
C         7.08178081529254    3.52905317576774    0.19111580990644
H         7.13178199697572    4.18854505961682   -0.67344115317488
H         7.05064298972340    2.49900279731406   -0.16293090899419
C         8.31704637503230    3.71238311606415    1.10542426261152
H         9.04790546350316    2.90913136346598    0.98627810339355
C         8.19505779080547    3.44086368549064    3.66903467209590
C         6.97509735572003    3.00810665869791    5.75144910550485
C         7.82845110656974    2.04486752811248    6.29044083271243
H         8.50842303603934    1.47716055932556    5.64429068178330
C         7.75183680816037    1.76282729713680    7.64463282117383
H         8.40459354021539    1.01577248557344    8.07202077169063
C         6.83112057296173    2.41732983057493    8.44720622277064
H         6.77948062306606    2.19135341281201    9.50167266108471
C         5.96484981280715    3.34698676485875    7.89540778390291
H         5.23649022276278    3.84422840815200    8.51799699929401
C         6.03199723739869    3.64560456027160    6.54668680072516
H         5.36516879111389    4.36494370827023    6.09748157986648
C         8.99759124882633    5.08431868404935    0.92951778007577
C        10.19077122756667    5.30071932680888    1.84492721901360
C        10.36867844427332    6.53660989188238    2.45666489336167
H         9.59699446852386    7.28767700307531    2.38254345130636
C        11.53486921430624    6.81800517193174    3.14759320538975
H        11.65820109816541    7.78483752135762    3.61353092158731
C        12.54652987932364    5.87579032851822    3.22129250796137
H        13.46832986681209    6.10912684723859    3.73506336734700
C        12.37089929257466    4.63392103712233    2.62984199888827
H        13.16557514941747    3.90036292569261    2.64769878865332
C        11.19277805269852    4.33337486725492    1.95712497706798
H        11.11489153695154    3.38006155738737    1.45241688772488
C         9.46379665935721    5.32559463967709   -0.49500418164301
C         9.28621626957273    6.57741295795131   -1.07037886318801
H         8.79007246087255    7.35686103241447   -0.51289925042655
C         9.73255357841103    6.82806606540866   -2.35564158510322
H         9.58308915224374    7.80468664753108   -2.79122968640654
C        10.36879562205020    5.83375118961169   -3.07684801630131
H        10.71858951288080    6.02859901864743   -4.07945324926226
C        10.55599406282073    4.58706765973865   -2.50445602163643
H        11.05321770003327    3.80589636576845   -3.05940952063936
C        10.10832637324091    4.33097966015864   -1.22098876632359
H        10.26463170364522    3.35274110796438   -0.79573099971761
C        11.87694126759569    2.80485982101275    5.45228252970367
H        12.28840340397961    1.85078740727987    5.77196322030720
H        12.56812956756653    3.42353814701570    4.88333231038308
C        10.92972433172367    3.42791817931005    6.27011724143879
H        10.51288427926612    2.88634809854116    7.12218549028743
C        10.28857413929072    4.60009953080600    5.82661082486054
H        10.86789512387154    5.34472881751657    5.28540472890085
H         9.49625757617908    5.01340457031303    6.44246524302117

