69
CSD_code = CEZGOE | q = 0 | S = 0 | Stoichiometry = C29H34Cl2N2ORu | MND = 5
Ru        5.41217829913293    4.85124735345758    3.72600495388283
Cl        4.26271519830093    6.09016013298500    5.25700248553310
Cl        5.65662295141941    3.16175468131809    2.21708337469363
O         5.08416910983753    3.17579667065680    5.19959882813389
N         4.54926463748662    6.61652973106588    1.65654552034041
N         6.62831938981457    7.08660556134666    2.00981290176549
C         5.62280150538347    6.30668445810336    2.39401278119334
C         6.26061142904031    8.01514101078103    0.94337397658662
H         6.89149481978371    7.85237559303984    0.06453244560271
H         6.40332841659727    9.04806595213760    1.27582079045091
C         4.78964586731932    7.67427197848315    0.68706873722925
H         4.12080925531962    8.52108241687791    0.87004182580720
H         4.61172533627915    7.30775296672524   -0.32911918291971
C         3.28559126518697    5.98212350128788    1.81772299570045
C         2.34192196047643    6.53935885380927    2.69172283449082
C         1.15174822213309    5.85891702478349    2.89727947928757
H         0.42830612463161    6.26696357984096    3.58870610897138
C         0.87078944709400    4.66788720827646    2.23963580900278
C         1.77692524491320    4.19415599172716    1.30401931214284
H         1.54790650043481    3.29952071778913    0.74221091467813
C         2.98082220892137    4.84445305136209    1.06187752318764
C         2.55963664325504    7.87879026570595    3.32875032047406
H         2.08451092281520    7.91576138011117    4.30488326100612
H         2.11347208472815    8.65263305670177    2.70021048850608
H         3.61647970612029    8.09400312889621    3.45997745537771
C        -0.41151315368357    3.94183488928035    2.51458534284648
H        -0.46069993450732    3.01093335933195    1.95521897849321
H        -1.26370627146647    4.56072361649769    2.23521670647139
H        -0.50011881986554    3.71712844689208    3.57680889587154
C         3.86527220086228    4.37994034189632   -0.05575354757942
H         3.85111253698616    3.29597960005293   -0.12844649610899
H         4.89553756848247    4.69370007387498    0.08619999641855
H         3.49438527250456    4.79075331094413   -0.99731239917379
C         7.94759419438703    7.10649457967782    2.52859613664621
C         8.23906312440542    7.92786890130104    3.61705491032449
C         9.54743840832330    7.97385048967462    4.07731285989823
H         9.78566721293565    8.60420093708447    4.92208442370540
C        10.54803337462011    7.21662629423822    3.48614475886623
C        10.21919610864209    6.37674234548729    2.42933663141768
H        10.98761910969473    5.75889670779826    1.98722606065098
C         8.92471329183666    6.30244763973691    1.94015247409029
C         7.14202549345148    8.67750865428115    4.30626377289041
H         7.52009736091086    9.18914598135800    5.18663342270961
H         6.36518431885307    7.97467971527604    4.61484252920813
H         6.68859506673089    9.41581209978297    3.64629104337154
C        11.96176261851411    7.28097327381112    3.97983926664038
H        12.03252291957788    7.87646133776177    4.88624543440665
H        12.60389377104018    7.72826814923961    3.22145734491609
H        12.33984049449404    6.28107600542007    4.18607978899832
C         8.55276161620577    5.33982418378514    0.85654879890811
H         9.40513781516682    4.72692635598206    0.57810278535614
H         8.19582355732864    5.85834409925507   -0.03221549006379
H         7.75311637187226    4.68800184167157    1.21330514631440
C         7.10820790143000    4.79045772583911    4.57191275534980
H         7.98456360853181    5.40520610265813    4.36036123665223
C         3.92756377225230    2.41506339285099    5.45067352435013
H         3.17393588481808    2.75330122453335    4.73593329640954
H         3.55933535562640    2.58399978455704    6.46852217734923
H         4.11806351351929    1.34764373143582    5.29366057160922
C         7.27797398353919    3.84230682448051    5.61269146379430
C         8.47338274314239    3.70966649116217    6.33764270000277
H         9.30130108683344    4.35561936696899    6.08428629530589
C         8.58824714286686    2.78208114051295    7.35057899038020
H         9.51322097978553    2.69367334066542    7.90030430892108
C         7.51664281817054    1.96033690397923    7.66776790817059
H         7.60735980916272    1.23481134157181    8.46201258162980
C         6.31896914937661    2.05730773024303    6.97299237481746
H         5.49967284728134    1.40686234891926    7.23721317453940
C         6.19600722891891    2.98608305096897    5.95475112308180

