152
CSD_code = CEZHEV | q = 0 | S = 0 | Stoichiometry = C47H93ClN2P2Si6Ti | MND = 6
Ti        2.62117691517037   -1.20493972660719   14.97593908916320
Cl        1.34004828708612   -2.95986922900797   15.57875196239943
N         2.96538257598150   -0.09992303738242   16.49404468408683
C         3.56170111017582   -1.09459401571237   17.21931363383380
C         4.33100526475097   -2.02219301030879   16.59029749855310
H         4.71479740516658   -2.86089706731617   17.16872933498429
C         4.64522106159790   -1.89816338222018   15.12086785251479
C         3.27109789937138   -1.19432011148226   18.69895287063580
H         3.73910413673951   -2.07938183913252   19.12584232401798
H         2.19272189157881   -1.25543978002256   18.85744342166502
H         3.63234267924602   -0.31517595400554   19.22974182144308
C         5.67992173047880   -0.78983321216900   14.82405534539350
H         5.22552739775644    0.18523058506702   15.02073462575684
H         5.98968686377363   -0.80494634805859   13.77890491107010
H         6.57360472725176   -0.88212788649182   15.45287220188213
P         5.18422845278847   -3.46480402600516   14.48791227432561
C         5.58178108096371   -3.37824511327469   12.71139883438883
H         4.86126840151954   -2.72579106185575   12.21942826889694
H         5.52529871387989   -4.37249296992015   12.27237717058077
H         6.58626461527117   -2.98113112932214   12.57495512893760
C         3.92114801642537   -4.75513445550291   14.68879281738820
H         3.70474567172574   -4.89347306034390   15.74867304240293
H         4.27426317028504   -5.69194038340552   14.25940121834399
H         3.00008274201674   -4.44273843246082   14.19220229870995
C         6.71697746716216   -4.16733886962824   15.26735391880471
H         7.50338596047312   -3.41723429763821   15.13299199408227
H         6.52403026629856   -4.24745956747914   16.34070940343921
C         7.18257699507894   -5.50670142254170   14.71501309905408
H         7.31981816909923   -5.44279145632762   13.63287297080867
H         6.45624116617575   -6.29565952610474   14.92628274132850
P         8.84825208726546   -5.97722276715212   15.43993221658735
C         8.96168502541901   -7.65635268181953   14.66824162719477
H         9.81266609355119   -8.18096313467756   15.09780118989708
H         9.13075265643502   -7.55031294169815   13.59870847296243
H         8.05697178739349   -8.23830131384728   14.83887165716414
C         8.27317792703505   -6.51077614275750   17.11821614039581
H         7.39589526793891   -7.15385749866509   17.05678478210431
H         8.04660921400315   -5.63742750695393   17.72601747056038
H         9.08392726788190   -7.05324008690200   17.60048847732279
N         2.17138751173925   -0.29031141030795   13.63326456553464
C         1.52850953798042    0.35112217764868   12.65170357496411
C         2.02632561990792    1.57059496382120   12.12721179826080
C         1.39398376586047    2.16533731095145   11.05322703742610
H         1.80341677526535    3.07704669099705   10.64796047166177
C         0.25140812806804    1.62149589671025   10.47671169517651
C        -0.27764632831655    0.46969103727264   11.04481302836716
H        -1.18618910962769    0.04768615712447   10.63932191298159
C         0.32014690945864   -0.16559825116996   12.11472470131676
C         3.23628966301824    2.17133426352759   12.78296736390591
H         3.39828895037439    1.56021803419895   13.69016095961775
C        -0.38732934089217    2.22679286148311    9.26119743184339
H        -1.21574470073161    1.56490190448404    8.98432397405865
C        -0.27079109706127   -1.39570004279549   12.73594136827806
H         0.26625895526350   -1.52742220703544   13.69000833278341
Si        2.88430810805125    3.93637993258082   13.43596335904437
Si        4.76393406047457    1.84157886478489   11.68748908316355
Si       -1.24106152957955    3.89825790193759    9.67179433564299
Si        0.81551307067064    2.16145691314266    7.76500950339072
Si       -2.10432430700271   -1.18479045166479   13.24240955346355
Si        0.24200983670493   -2.92782567553207   11.71856594449832
C         1.06399121552201    4.01959803687910   14.00081816699878
H         0.92185249810731    3.39277514028953   14.87644619990130
H         0.39473490360413    3.65653011989453   13.22717820837528
H         0.75879137246980    5.02853238702787   14.26261206780342
C         3.99723544471236    4.24865497174197   14.95427495800589
H         5.05064744815721    4.17132275664309   14.70679828744891
H         3.78077070068121    3.52597484395647   15.73323644296998
H         3.82939059924540    5.23693816194537   15.37051735992095
C         3.27216651681462    5.32581542902545   12.17838375619658
H         2.91188694778503    6.28299626406017   12.54343201668824
H         2.81359605772398    5.15419136179511   11.21170884089970
H         4.34270347445122    5.41971338432851   12.02426103243662
C         6.37093201873700    2.32084269590935   12.61109146947863
H         6.38112660778705    1.95313911255116   13.63138535373616
H         6.48160260915427    3.39920618743909   12.65073699552899
H         7.24785793298259    1.92505227737248   12.10778216193770
C         4.79496442188234    2.73512797790843   10.00126239091452
H         5.70083498412626    2.48719132489084    9.45510832193357
H         4.77129360678793    3.81278731099853   10.11754439149395
H         3.95162165826648    2.44654390113237    9.38405401254548
C         4.75444986316680   -0.04188019950099   11.34139876151528
H         4.23686145376635   -0.26115468123716   10.41267074158668
H         4.21103357633904   -0.53851537592722   12.14651050296752
H         5.75241737768471   -0.46483027924804   11.26654327674645
C        -0.09620201008035    5.30073614254976   10.26937129224510
H         0.69986159773349    5.50827587156695    9.56300161901157
H         0.35716529089865    5.06015222036259   11.22439126091415
H        -0.66241711827594    6.21905073422493   10.39836871352394
C        -2.16674711226152    4.51897203654519    8.11805410225642
H        -2.80422906080245    5.36413164004550    8.35796418902546
H        -2.79752078263621    3.74551974527422    7.69222422115411
H        -1.47572437624620    4.84140640861997    7.34624509647796
C        -2.51573336046833    3.56812015020691   11.05427586767665
H        -2.02451718631916    3.17445414245392   11.93790647811910
H        -3.26135933309725    2.84228649113620   10.74429527330118
H        -3.04008512902025    4.47404762238736   11.34322417854379
C         1.96570814814483    0.64797829045233    7.96839586245784
H         2.80791594520783    0.68242153730075    7.28356336772489
H         1.42769546566589   -0.27617426446622    7.77951523913597
H         2.35494179137275    0.59368011484990    8.97999002169024
C         1.86526423545520    3.73971394200450    7.53245024055628
H         2.59749742778548    3.60275084942475    6.74194882928558
H         2.40588898068101    4.00888041752461    8.43278076773531
H         1.24181664087556    4.58394228604456    7.25576399480387
C        -0.19274551639227    1.91358646323687    6.15915115504770
H        -0.86903709437480    2.74240682411927    5.98153114448548
H        -0.78940979707154    1.00776354525829    6.20058121061537
H         0.46058507442136    1.83415198045144    5.29575678685764
C        -2.40320059021497   -2.26227182124321   14.79176402589598
H        -1.55174287532521   -2.22134081386793   15.46418298350448
H        -2.55167968594847   -3.30352625443368   14.52598030554600
H        -3.27944923806817   -1.93944328126290   15.34580345641036
C        -2.45293785185086    0.65056052253334   13.66033343047156
H        -1.52868681686166    1.21501859161216   13.73384462095327
H        -2.98525572415296    0.75676122039151   14.60083624665123
H        -3.05807334902379    1.11848755238382   12.89102094501179
C        -3.35079506693174   -1.74421962546080   11.90241653329377
H        -4.36929589664336   -1.62987871577106   12.26112676899382
H        -3.21215900774728   -2.78760018391098   11.63828132203214
H        -3.25982389376687   -1.15902932390592   10.99345669700828
C        -0.39185624398209   -4.53282094145331   12.53916248056572
H        -1.47147936239724   -4.61187398628616   12.47454784724751
H        -0.12370503409650   -4.55255966588541   13.59097693864402
H         0.02812631634583   -5.41730632306077   12.06905412532287
C        -0.31688295929636   -2.84740787787670    9.89540773640619
H         0.02613733996694   -1.93099543180389    9.42697707062976
H        -1.39684601591051   -2.87839175090741    9.80960192993603
H         0.08129246281598   -3.68183096317614    9.32642623459153
C         2.15752341360291   -2.98461585927041   11.73517047194817
H         2.55156341447392   -3.98435463819035   11.57100438969904
H         2.50079692741045   -2.61207046025758   12.70990247313361
H         2.56740766024657   -2.33129306016913   10.97081324921869
C         2.50361431008174    1.07272726074612   17.07759936804407
C         1.14078839507487    1.41271646772387   16.95746015850599
C         0.67861329359547    2.59998976439586   17.49404393461207
H        -0.36935897867587    2.84929676618406   17.39583472376393
C         1.52253408722883    3.47538842232851   18.16720439013138
C         2.85794367562603    3.13227057005435   18.28416960599535
H         3.53718649376938    3.80087813281882   18.79606459903205
C         3.36660383412917    1.95646486688973   17.74834782911535
C         0.20452903822057    0.48208774265581   16.24406684256902
H         0.45647110522137    0.45421852176315   15.17497093003629
H        -0.82623578981318    0.81127441341203   16.35644184735068
H         0.29159729891562   -0.53656051755007   16.64298138472338
C         0.99620942648566    4.76502099994933   18.72176569549573
H         0.04225657258999    4.60934391935358   19.22255455407441
H         0.83727793151661    5.48011364374725   17.91408707345012
H         1.69797100958314    5.19979235241826   19.42951091356661
C         4.84465211861870    1.69912700256864   17.87524399496085
H         5.40208864406740    2.52604959082290   17.43464128536934
H         5.13690541708641    0.78089099634965   17.37247419414506
H         5.13581554025527    1.62892086221785   18.92434897215044

