66
CSD_code = CEZJEY | q = 0 | S = 0 | Stoichiometry = C28H34BOPRu | MND = 8
Ru        4.28717919324084   10.38592058434417    1.99330079318133
H         4.75290678068495    8.96804503126540    2.35698585033316
P         2.84454471478516   10.32746986997655    3.75755277294768
O         2.46946198930527    9.30188656283554   -0.10798472870259
C         5.76023611363495   11.32083937090337    0.60778896580477
H         6.12031311350332   11.01832977054658   -0.36795302767887
C         4.70979843974821   12.25266556050488    0.85297277919704
H         4.12261329928903   12.74982737425298    0.09135607367438
C         4.70429984297259   12.55280722064845    2.22926040119318
H         4.12382711601838   13.33403882758091    2.70537793371093
C         5.76317673594267   11.82162265378994    2.85006807719206
H         6.13036617592148   11.98591468026947    3.85637130284223
C         6.42040851702830   11.08324589908659    1.84309529446274
H         7.33644035355919   10.51978368486455    1.96646218080960
C         3.13472889757134    9.66385498319898    0.76762638991014
C         3.57590191053205   11.09063709469010    5.24334674472986
C         3.30144841890828   12.40551473319235    5.60670674038967
H         2.57315999556141   12.97738675798703    5.04700423865745
C         3.95594116792762   12.98147028988773    6.68131985823262
H         3.73707006455801   14.00275986074048    6.95833985025724
C         4.89322566563457   12.25487157398422    7.39705464828105
H         5.40402807438266   12.70781425199651    8.23411354385661
C         5.18331051191993   10.94992602946727    7.02969803350100
H         5.92353982330866   10.38624131061830    7.57890917164784
C         4.53499651237737   10.37264359964916    5.95386609437781
H         4.78108735875679    9.36676810079310    5.64259702444977
C         0.83815232877165   11.69442891928009    2.39599943295382
H         1.49032094458543   11.56400989209493    1.54000257396305
C        -0.38248052946151   12.33420114869797    2.26645424805482
H        -0.69384319760398   12.71451857689846    1.30462429816447
C        -1.20297632538117   12.48509699897349    3.37150155782734
H        -2.15483963943808   12.98614042754907    3.27424103933995
C        -0.80292946814886   11.99369589982897    4.60505303599860
H        -1.44404696996949   12.11195627735389    5.46663783324058
C         0.41442051376011   11.35245512861496    4.73578086880346
H         0.72951557169402   10.97606604316268    5.69960600189112
C         1.24482148075057   11.20080382154750    3.62831946581603
C         2.27447532993712    8.68523881472559    4.37338643679225
H         3.17273121012044    8.10969492791186    4.60763599409004
H         1.67282509202491    8.80133177942989    5.27907589000697
C         1.49113187308293    7.99662558723811    3.25437288342923
H         2.05137636400830    8.17861183742982    2.32135674233336
H         0.53198663643463    8.50353405357092    3.11567454737242
C         0.57875512122494    5.63934802385624    2.18035686692814
H        -0.10300189492776    6.25083194490697    1.57866227967506
C         1.70935684686014    5.18922261146586    1.22106553468664
H         2.10626193723683    6.09141422332740    0.74905892398244
H         1.28549907387072    4.56302426977152    0.43124130671727
C         2.86701510485237    4.43888172507371    1.88431814149872
H         3.71177179617251    4.43489819004081    1.18906089540171
H         2.59509352157529    3.39670553003541    2.04027550398009
C         3.34019905886368    5.05215967231130    3.20325894381705
H         3.90882834786837    5.95983212460263    2.98205819822258
H         4.01547837179303    4.34935874187136    3.69951715654294
C         2.20294294557823    5.44764946143346    4.17969668099268
H         2.69188952274536    5.89860000861790    5.05066146359658
C         1.38851280602400    4.25636468044094    4.71366863810785
H         2.06114190623356    3.52456405664391    5.17021383005394
H         0.74391463920382    4.64453312531663    5.50775032208148
C         0.51082147943551    3.53970278471885    3.68516004720528
H         1.11443092780551    2.85166304006635    3.09740380692044
H        -0.21581093376413    2.92450004921574    4.22498846633803
C        -0.25283946113391    4.47902324241981    2.75138177383688
H        -1.08541942059358    4.92294615159858    3.30480531302244
H        -0.68129870407541    3.89074349942739    1.93509113975877
B         1.34430500488498    6.43223703143409    3.30474490932266

