75
CSD_code = CEZLUP | q = 0 | S = 0 | Stoichiometry = C30H36Br2O2PdS4 | MND = 4
Pd        1.07339595012604   12.38383505429114   -9.34373565195647
Br       -0.87750081309853   12.41159443213236   -0.76579170330768
Br        8.41332551775441   12.37215374883497   -4.49938564154684
S        -1.00451039102493   12.32733499440641  -10.23308589814236
S        -3.85927784992744   12.27464435004230   -9.51030117874968
S         1.95521259462526   12.51407566259820  -11.42268130358108
S         4.50483723170216   12.84442585924353  -12.86183489480202
O         0.36259882022863   12.31107094463640   -7.41191411982821
O         2.92411838335110   12.39456264073310   -8.44361340959535
C        -2.17838718082326   12.29580511809773   -9.00597596922603
C        -2.01143239341651   12.28802380424655   -7.63052318892262
H        -2.92606396091695   12.30557917721694   -7.05605310265567
C        -0.80049085252090   12.28767013025473   -6.92182316641710
C        -0.86850046344875   12.29384277277286   -5.43485187186590
C        -1.90538738252079   11.70181853632358   -4.71758514076792
H        -2.70550962217020   11.19098130556747   -5.23001541887287
C        -1.90638765165885   11.73258284919513   -3.33581372022779
H        -2.70763360064203   11.27088381091505   -2.77941899353199
C        -0.86640586963790   12.35837110310579   -2.66799405802495
C         0.18416347722507   12.93887808940575   -3.35971052151866
H         0.99171369182960   13.41406593971832   -2.82427466967578
C         0.17962290514842   12.89631834388128   -4.73913091607815
H         0.98959583104747   13.33620866516765   -5.30115160879797
C        -3.77460405624636   12.26768941227544  -11.33395754900235
H        -3.25484901232775   13.17516638611933  -11.64136647217645
H        -3.18481772662595   11.39980592714998  -11.62898233783205
C        -5.17925140731839   12.20717331284367  -11.91035198698880
H        -5.75196498009656   13.06943500133907  -11.56253263647890
H        -5.68089286982450   11.30734978980050  -11.54815048439494
C        -5.14032757143406   12.19418880307637  -13.43743177461458
H        -4.64151439327471   13.09837769357324  -13.79377456098919
H        -4.55347883947956   11.33648935296567  -13.76890703333689
C        -6.54467241978424   12.12337612544870  -14.03331471208143
H        -7.13422018059312   12.95500474763672  -13.63978594284444
H        -7.02674249702797   11.19704224653605  -13.71293035986159
C        -6.55506026841059   12.19444366112045  -15.56078828290801
H        -7.59022262877574   12.29502821469657  -15.89508604556353
H        -6.01605879067024   13.08806991969010  -15.88349539141836
C        -5.94279571572155   10.96602962068080  -16.22416696135881
H        -6.05263851398946   11.02775013634839  -17.30446194382201
H        -6.43987722119396   10.06118587882105  -15.88104338127610
H        -4.88295296372917   10.88500685942233  -15.99767229794038
C         3.64672250706111   12.64676981307437  -11.34367867602608
C         4.47962040875183   12.60962439715647  -10.23725517406560
H         5.53204114506316   12.72924696058627  -10.44930587952305
C         4.10115520773695   12.46845905218879   -8.89335126079774
C         5.18052141343161   12.43541498604175   -7.86921530771224
C         4.87602435570373   12.89180814333393   -6.58681627242533
H         3.87993874973985   13.25849199338849   -6.39029665166689
C         5.82590787592792   12.88085069472474   -5.58573112470432
H         5.59026275209104   13.24217000348052   -4.59654818783457
C         7.09163819605447   12.39368327744768   -5.86823266488908
C         7.41108851875614   11.91325284505343   -7.12773763730640
H         8.39741600085604   11.52183659518600   -7.32430660076255
C         6.45501803646837   11.93524069796513   -8.12542160357517
H         6.70274147803665   11.53593705761004   -9.09644506323547
C         3.18103419900348   12.90475607776048  -14.11734040216253
H         2.64042141228325   11.95951388682774  -14.07143057185380
H         2.50776023293568   13.71634520340987  -13.84133438865925
C         3.79228512432329   13.13199544019705  -15.48982981261762
H         4.36967425424854   14.05882651222677  -15.47982324933905
H         4.47915890292153   12.31530895432064  -15.72121047490227
C         2.70895696927739   13.21380792717273  -16.56355776701890
H         2.02321850809954   14.02933290085142  -16.32278482288735
H         2.13129646182294   12.28672297110690  -16.56616061542659
C         3.30342641390792   13.44521008098350  -17.95050682977144
H         3.88952248745998   14.36702415081144  -17.94270582251239
H         3.98212410421474   12.62475158390428  -18.19431346621812
C         2.22541930677279   13.54405832128173  -19.02726017883584
H         1.54676933796245   14.36456753367802  -18.78341951110621
H         1.63926444634377   12.62235445186004  -19.03676379989649
C         2.82584108469150   13.77706984320769  -20.40802606273848
H         2.04303425220422   13.84719903021734  -21.15946589366767
H         3.48917138440940   12.95850895688382  -20.67868016717800
H         3.39997015680471   14.70091923378747  -20.42317775594223

