75
CSD_code = CEZLOJ | q = 0 | S = 0 | Stoichiometry = C30H36Br2O2PtS4 | MND = 4
Pt       -4.90404014371984   12.28677813025678  -10.08908242760768
Br      -12.24763882611719   12.32574804652487   -5.27816877409547
Br       -3.18881281215679   12.53014167646847   -1.47893194027265
S        -5.76795073689849   12.25624549166764  -12.19375158804148
S        -8.32941214264901   12.40633566583579  -13.63660978928976
S        -2.79589339712769   12.28083607951079  -10.94372460002783
S         0.02827993501582   12.18310635991612  -10.11996232281486
O        -6.74521979777205   12.25403216636205   -9.18922938406488
O        -4.25959413318066   12.36179517101489   -8.14392817531033
C        -7.46313926376723   12.33094276438596  -12.11307385690651
C        -8.29365102316854   12.33119057827554  -11.00424883432539
H        -9.34899584488063   12.40628770716004  -11.22267846955055
C        -7.91896907081491   12.27669600051263   -9.65530334173008
C        -9.00039139838920   12.27508031098969   -8.63422994790070
C       -10.25694742079132   11.71868069975873   -8.86180607919494
H       -10.48624861333277   11.24966590546947   -9.80583831401290
C       -11.21718562512851   11.73041198733754   -7.86798529902860
H       -12.18940289518932   11.29539332746384   -8.04185056285903
C       -10.91994884748742   12.30137045645139   -6.64121428692851
C        -9.67181401186099   12.84596962210195   -6.38674596091373
H        -9.45264360633956   13.27914674695870   -5.42294086742059
C        -8.71684935902701   12.82296441034225   -7.38299090186634
H        -7.73493434358069   13.23513803838122   -7.20590424503321
C        -7.01208289781884   12.42174776976432  -14.90057658271724
H        -6.36573571263460   13.27342785846819  -14.68849933236383
H        -6.43967452384357   11.50084085794287  -14.78984757183467
C        -7.63627731501808   12.52700465281430  -16.28199034572092
H        -8.23322697567327   13.43948775135908  -16.34094324348952
H        -8.30706983716571   11.68035923617728  -16.44218422538731
C        -6.56219647453004   12.54461057851109  -17.36792678374914
H        -5.89076153435892   13.38940532952785  -17.19843275284276
H        -5.96668953368745   11.63120379627624  -17.30238836586883
C        -7.17145189284670   12.65364361907674  -18.76347585207877
H        -7.84281936181177   11.80847839059687  -18.93147087780360
H        -7.76805474146022   13.56653099131372  -18.82648139209203
C        -6.10460820567420   12.67369182088659  -19.85559004492275
H        -5.50923081314492   11.75986595198241  -19.79513922696525
H        -5.43212897038771   13.51786196582953  -19.68720951626622
C        -6.72046827467701   12.78608843082027  -21.24463517736942
H        -5.94561960513069   12.80055500410863  -22.00737375039020
H        -7.30362939104649   13.70036987879627  -21.33036071774356
H        -7.37842446980530   11.94205412026874  -21.43965240722835
C        -1.66644108684925   12.26045765043201   -9.67478098719172
C        -1.87815704741262   12.30740421460169   -8.30638449173623
H        -0.98333692754543   12.26420810928419   -7.70248165492189
C        -3.10463171557065   12.36987639142577   -7.63243289145180
C        -3.07540327225001   12.42090046251367   -6.14620240171108
C        -4.14936758420699   11.86468135227590   -5.45136057550026
H        -4.95176426787742   11.40877299838814   -6.01139870118472
C        -4.18866085360667   11.88820125189756   -4.07181223945849
H        -5.01569921119558   11.44798594971806   -3.53628066811896
C        -3.14894768354661   12.48910022106751   -3.38111729612529
C        -2.08350775628352   13.06918544963178   -4.05016407669964
H        -1.29138715913356   13.54817375646641   -3.49541242262095
C        -2.04868916871158   13.03310561040114   -5.43122315921458
H        -1.22943032397844   13.50857363410251   -5.94751824754221
C         0.00433071901919   12.10632876715606  -11.94375367534259
H        -0.60097496361100   11.24420980361367  -12.21881826087896
H        -0.47568193404409   13.01624419496057  -12.30416106095992
C         1.42923283667994   11.98916002828974  -12.46057061972694
H         1.86835219355745   11.05588811898195  -12.10218453142157
H         2.02040331214716   12.81252665737944  -12.05328633815512
C         1.49296303118407   12.03572180637427  -13.98785247485305
H         1.01948195220445   12.95439746530542  -14.34132054500354
H         2.54352196134384   12.07060298526244  -14.28488767546292
C         0.83152499227346   10.83381179305491  -14.65904843206879
H        -0.23992638242341   10.83570498832699  -14.45121475550848
H         1.25164658723920    9.91347636747712  -14.24666059201963
C         1.03940912754433   10.84628024819200  -16.17203773887468
H         0.62976712936024   11.77155052312346  -16.58350135243872
H         2.10973985148588   10.83298743552673  -16.39005010878208
C         0.37133821078805    9.65354050295474  -16.84483539650670
H         0.52776695049556    9.68336239108333  -17.92049980746963
H        -0.69949520467925    9.65809374122556  -16.65323327004439
H         0.78267759663631    8.72119978182087  -16.46413541479354

