95
CSD_code = CEZROP | q = 0 | S = 0 | Stoichiometry = C42H44N2O4P2W | MND = 6
W         5.01364210050728    6.09402281467173    0.00006824308837
P         3.87410446399149    7.61118284453016    1.56945607840325
O         3.00680717814716    5.66755459975373   -0.58437920070571
O         4.94735791044207    4.77724476034478    1.23514715973492
N         2.75823511783848    3.18375440174572    0.68956414903363
C         3.87122959033225    6.90783227394607    3.26049984822565
H         3.25793420111140    7.51489480429089    3.92635584527321
H         4.89280957214108    6.87276360655826    3.63662091510325
H         3.46545325528828    5.89600853784894    3.21901157418639
C         4.28757456913694    9.36893687928359    1.93997901044949
H         3.55046718803743    9.76362876825560    2.63849264337763
H         4.26521998763466    9.96334974108244    1.02843966140059
H         5.27676825664917    9.44294530718320    2.38293993624335
C         2.06645576214859    7.81786817430171    1.28822494769154
H         1.59390363829997    8.30244124009957    2.14163528183791
H         1.62224526159453    6.83781472169641    1.12721172885463
H         1.91071368589185    8.41926981576765    0.39430098853709
C         2.78441707598710    4.60390723440267   -1.31627521620788
C         2.61921742559064    3.32572721372834   -0.72202783213337
C         2.34060505160267    2.21727595722155   -1.50206901574422
H         2.22059787261980    1.25544016018746   -1.02553076275831
C         2.20946106874984    2.33251064473478   -2.87706787133025
H         1.98854236467074    1.46097617500326   -3.47427691926469
C         2.34914894757618    3.57558530634654   -3.47382695139469
H         2.23627068217862    3.67409644858340   -4.54446093527107
C         2.62785509659747    4.69095932970069   -2.70970086568652
H         2.72694635124802    5.66833398686946   -3.16450878699776
C         5.06210383824534    3.47567286517975    1.44255653944492
C         3.97627403331458    2.61946795661412    1.15629923681188
C         4.12508734802312    1.25237742215653    1.31954128075838
H         3.28835406173015    0.60409022873635    1.10834497910128
C         5.32905610265689    0.72188806878233    1.75669104353702
H         5.43197205271658   -0.34545689516536    1.87847354757518
C         6.39374660703018    1.55989671898701    2.04487064392982
H         7.32934125792781    1.14498091044254    2.38945574676499
C         6.26530130557375    2.92839158274938    1.89560961586852
H         7.08067393021006    3.60777198796905    2.10809569989166
C         1.92274307107267    3.84422003983231    1.55939533024977
C         2.17603763456265    3.84535365382953    2.93671715403603
H         3.06251358313107    3.35697965264584    3.31828395444581
C         1.29113302312942    4.44259930647868    3.81404947956981
H         1.50782442488698    4.42901018251165    4.87329071545300
C         0.13690357137432    5.05050769661611    3.35124376883452
H        -0.55106237919528    5.51582053898998    4.04073059474015
C        -0.13148702047424    5.03635899646354    1.99117925208156
H        -1.03720567014736    5.49217969440188    1.61664774348576
C         0.74000085146323    4.43929210096465    1.10372349921716
H         0.51079769078514    4.42182558321324    0.04920392691200
P         6.15292520334071    4.57668383020988   -1.56907241647099
O         7.02047525871368    6.52050806445648    0.58421872642719
O         5.07953370076054    7.41073221686252   -1.23506209295014
N         7.26866646731134    9.00433878541515   -0.68976491739021
C         6.15612550473780    5.27990168028116   -3.26014541205740
H         6.76956323653119    4.67289168936320   -3.92591483988640
H         5.13459650438157    5.31494939983251   -3.63640804450199
H         6.56184976506691    6.29174234121887   -3.21853396200044
C         5.73980515205193    2.81883649584018   -1.93954805376836
H         6.47702621332102    2.42416132535078   -2.63796076758822
H         5.76211413747061    2.22447602149988   -1.02797086748911
H         4.75066434038435    2.74469885102645   -2.38259871195260
C         7.96055662083675    4.37000928022886   -1.28760548195577
H         8.43319408587593    3.88542596075702   -2.14097308506091
H         8.40472182727446    5.35008488279476   -1.12662987397123
H         8.11631313647215    3.76864575135460   -0.39366064980496
C         7.24287575556167    7.58417375629335    1.31606827612435
C         7.40792207957510    8.86237316176732    0.72180898348502
C         7.68660638448155    9.97082313460289    1.50182378004714
H         7.80654221280579   10.93266538360368    1.02528076925033
C         7.81796203657111    9.85557049774091    2.87680013701406
H         8.03893008526948   10.72710601550668    3.47398730377840
C         7.67837752297761    8.61248932642977    3.47357587587876
H         7.79141442868925    8.51396556821944    4.54419069983995
C         7.39959071555165    7.49712398830843    2.70948131639887
H         7.30055080905232    6.51973445958144    3.16427009287177
C         4.96469162521720    8.71232796108445   -1.44241395629491
C         6.05052288645125    9.56856997659838   -1.15629309104149
C         5.90163167151427   10.93566094680179   -1.31947682577877
H         6.73836228822573   11.58397997469772   -1.10836833573171
C         4.69758198647069   11.46610904257972   -1.75645302278764
H         4.59460279765809   12.53345192203169   -1.87819504511547
C         3.63289516862346   10.62805562704248   -2.04450943008911
H         2.69723702908774   11.04293975316533   -2.38896287289412
C         3.76141143347449    9.25955707128085   -1.89528566121844
H         2.94602819881553    8.58016317920596   -2.10769811342457
C         8.10402886915600    8.34391191583251   -1.55974841053547
C         7.85052092621148    8.34280142352294   -2.93703171499633
H         6.96397805631506    8.83116118092322   -3.31846199304344
C         8.73530126520036    7.74557891294398   -3.81450905118337
H         8.51844712303085    7.75917901220140   -4.87371736452469
C         9.88960165363845    7.13766403607591   -3.35188825206145
H        10.57745977772632    6.67235542980860   -4.04148565978042
C        10.15819730208476    7.15178743179428   -1.99186395735715
H        11.06396487669726    6.69594952552803   -1.61747195914471
C         9.28684158936634    7.74883787755457   -1.10426831379368
H         9.51619729593875    7.76629189024286   -0.04978116012575

