89
CSD_code = CEZRUV | q = 0 | S = 0 | Stoichiometry = C30H51NO2P4W | MND = 8
W        -5.62252239552846    2.97370904578810    6.73581822588754
H        -6.44349961515032    3.46926912827417    8.09620612263199
H        -6.77856184171584    1.80818663600964    7.06808886787576
P        -4.55711393984863    5.10202885242193    7.46670015549781
P        -5.24092313233510    1.16365172663389    5.04746734188608
P        -4.50258103540631    1.60839238434825    8.50095445557744
P        -7.73779857851782    3.87360783477696    5.89936570637039
O        -3.40098010829271    3.08543863955550    6.15674991163155
O        -0.94579953808613    3.41887927927898    6.95655606390258
H        -1.81028294927643    3.13816064622668    6.52150736295740
N        -1.37460058120694    3.58175365225788    4.17864832785500
C        -3.68768736023043    3.65005751035768    4.98176516264465
C        -5.05346982033115    3.96519241833346    4.84217541938528
C        -5.43207487900508    4.60650062844058    3.67553810058995
H        -6.46489232735744    4.88617880646215    3.49970475656718
C        -4.50344202279239    4.92676797180460    2.68398657486662
H        -4.82914452653541    5.43981865896650    1.78885139745636
C        -3.17545494628306    4.58746481349301    2.83365030182384
H        -2.45623474836293    4.81219889494912    2.05820716312710
C        -2.74722281116083    3.93459397795780    3.98801297189612
C        -0.38483138154753    4.41791721962444    6.24625284357339
C         0.42883553548492    5.34134107111491    6.89930354209667
H         0.59405979042800    5.21903321856467    7.95932774991964
C         1.01257236936405    6.38096770460176    6.20240520784791
H         1.64173393999882    7.08647933345667    6.72527187847020
C         0.78963953748693    6.52475044857379    4.84338703155825
H         1.23911721148376    7.34193866943740    4.29942704981278
C        -0.00365798358077    5.60591374344140    4.18073376048523
H        -0.16818191766497    5.68979724751269    3.11609606862296
C        -0.58333001479435    4.54825999336665    4.86556124029243
C        -0.75773003317622    2.64366882211021    3.38315697923103
C        -1.49043992401150    1.85241634209605    2.49129917626683
H        -2.55058111632456    2.02104127194110    2.37601701780004
C        -0.86937975010012    0.86937817394849    1.74848947757412
H        -1.45831927044858    0.27390586231576    1.06415859581718
C         0.49171560845855    0.64493240724392    1.86695839852520
H         0.97376295860438   -0.12369330721732    1.28146324813753
C         1.22617093004978    1.42368895726516    2.74687601361303
H         2.29008112837510    1.26261886028944    2.85121784271837
C         0.61796360200635    2.40755887839532    3.49750426462464
H         1.20468488352058    3.00220534724368    4.18234643088727
C        -5.67088911796649    6.24048748918618    8.39576795139978
H        -5.12032612763576    7.09618348755751    8.78567162168830
H        -6.12508706898058    5.69297231308147    9.21896373509799
H        -6.46025652460766    6.59170379254526    7.73747137529096
C        -3.17378239441236    5.07877794073582    8.68566922883312
H        -2.88239084483318    6.10194745797393    8.92445038228927
H        -2.32076719896631    4.55280227903064    8.26632375269040
H        -3.49331347792312    4.57590949875556    9.59562551519016
C        -3.82067086050666    6.34320119622100    6.31481146430104
H        -3.58277476896553    7.24901056833665    6.87243102867506
H        -4.51805558092791    6.58034496422233    5.51348164008069
H        -2.90795982117610    5.94988180458384    5.87134419964401
C        -6.31623794536737   -0.32279684326951    5.21997846147737
H        -6.04507317800693   -1.08244261847796    4.48692739239286
H        -7.34995306907684   -0.02205692553529    5.06146782013132
H        -6.23394990126866   -0.73484258138289    6.22093620619645
C        -3.59086574902188    0.34017732783961    5.02633445255181
H        -3.62021922767109   -0.53984051117797    4.38305121597857
H        -3.31396102150960    0.04788710844486    6.03771206728233
H        -2.83959860482234    1.03148637235787    4.64931913207828
C        -5.44259601855575    1.35238841407320    3.21985911812266
H        -5.16825647823875    0.41862422774394    2.72872992791855
H        -4.81784925125211    2.15778427576993    2.84332085594630
H        -6.48068239335636    1.58620783895354    2.99414536235943
C        -4.94918774822103   -0.18396002594327    8.63388127969713
H        -4.57537545016968   -0.59713742177802    9.57065857213174
H        -4.52572985669006   -0.74739551524796    7.80542066154942
H        -6.03419413500735   -0.27196523573891    8.60826363216123
C        -2.69417844661309    1.45243466147429    8.77514053030791
H        -2.50529780791640    0.77995818347102    9.61181870686923
H        -2.25861951984139    2.42502706711462    8.97979772857774
H        -2.22174867303435    1.06057302969825    7.87746338399397
C        -5.06748630236497    2.06802571906835   10.19375417050814
H        -4.58222610534332    1.45006808280960   10.94921493182554
H        -6.14613425537996    1.92343360146044   10.23359381509579
H        -4.85896061959446    3.11666554637161   10.38937393222375
C        -9.14015203071673    3.58081086005959    7.05443527516321
H       -10.06546070051795    3.99735960703704    6.65573084366523
H        -8.90505725477937    4.04254559969112    8.01195155432182
H        -9.24727632034934    2.50811140805670    7.20538797283152
C        -8.52663253007092    3.13342141960596    4.40220417294845
H        -9.52068228314773    3.55211816945528    4.24544689419110
H        -8.60641436783810    2.06113459302548    4.57550237148957
H        -7.91684121477742    3.30379005287838    3.52076224956603
C        -8.03477497322793    5.67494361642288    5.59656255298154
H        -8.83908741488223    5.81909546527554    4.87656463618203
H        -7.12912236695839    6.15088908380938    5.23164753746856
H        -8.31674194367157    6.13258178267897    6.54342047837108

