65
CSD_code = CEZRAB | q = 0 | S = 0 | Stoichiometry = C26H31NO4P2W | MND = 7
W         0.60774571080205   13.95565200559337   18.54527367504381
P        -0.94743646260019   15.81341753788391   18.91434887933352
P         2.60058705035815   12.88518833516702   19.51219670976380
N         0.90942969948451   13.82239450542168   16.26740777790067
O        -1.39665621678470   13.67046756177547   17.78185168504329
O         0.66575414001793   11.84001860336413   18.13047956728263
O        -0.05603993566977   13.78250335579077   21.58847132259460
O         2.54449236931820   16.42543325603426   18.60383609704818
C         0.19098252729972   13.84436647708748   20.45530502012100
C         1.83061916302016   15.50507383555276   18.61338126468238
C        -1.52151080572343   13.69555303534215   16.48137622059055
C        -0.40435646747653   13.85750805721272   15.64074671538633
C        -0.55950426537461   13.95723207918283   14.26719671349407
H         0.30873340593422   14.09270750087535   13.63856286605457
C        -1.81832459194104   13.89958584716027   13.69890508780670
H        -1.93059267968998   13.98489089599405   12.62920249242647
C        -2.92902412924055   13.71841657239557   14.51031366813225
H        -3.91318178605448   13.65660554307807   14.06900464169463
C        -2.79046216181336   13.62422034166022   15.87696521997910
H        -3.64963745589360   13.48904072450230   16.51770090493826
C         1.15178589595446   11.50926768980170   16.96681726731769
C         1.41807429493575   12.48929285611466   15.98818481783984
C         2.02429509271554   12.15289490574894   14.78972984308781
H         2.23918351017909   12.92090130550663   14.05988265734837
C         2.37673848081311   10.84007205902656   14.53173766162616
H         2.86079862835790   10.58592360477154   13.60150074128551
C         2.08653261036894    9.85573710473955   15.46494610593299
H         2.33895580675940    8.82631350995675   15.25524469392556
C         1.48938527662913   10.17711387352095   16.66411518879446
H         1.26913771102062    9.41636980729533   17.39877238527377
C         1.77192368947238   14.89340383964604   15.90983259755876
C         1.25735750629299   16.12601653233331   15.51040082996465
H         0.18994265443473   16.25328174589820   15.41134006202978
C         2.10371202502974   17.18418646502995   15.23815317389384
H         1.68382155378135   18.13368641747925   14.93915050308664
C         3.47543234294762   17.03278415970016   15.33703248612149
H         4.13285683021805   17.86163670219047   15.12465993493364
C         3.99492727403652   15.80380319279768   15.70659273498642
H         5.06415768937060   15.66737184936554   15.77722817985321
C         3.15669066463382   14.74200084012036   15.98370873037903
H         3.57231948415394   13.78576967514553   16.26280528577215
C        -2.45410082444373   15.34726360426481   19.84894449787709
H        -3.14845140778912   16.18729466691388   19.87012357054602
H        -2.16919521019538   15.08869253317571   20.86680236156518
H        -2.92319075744168   14.48601006103932   19.38139399228313
C        -0.37804184172531   17.21122806513942   19.97132254890872
H        -1.20252869276988   17.88511862053586   20.20122934876359
H         0.40751366402029   17.76476609699185   19.46091613238201
H         0.02799231351030   16.80570832608689   20.89705245800705
C        -1.67372982557752   16.77725807241093   17.52726525728522
H        -2.43038112606373   17.45558523782437   17.92248406670678
H        -2.13022671919147   16.11464830186777   16.79367985353193
H        -0.88378314762377   17.36003227284200   17.05577451715195
C         3.56413802193854   13.89327708670756   20.70977310716051
H         4.33586787377025   13.29182913658939   21.18886404769472
H         2.88302201792271   14.28185144278219   21.46535678187584
H         4.02745315894438   14.73235908887324   20.19439459521173
C         2.20602404303793   11.43888500683394   20.56524590244894
H         3.12251642918123   11.02537043426666   20.98656097133146
H         1.69723367779050   10.68743749338732   19.96673409494511
H         1.54450640802890   11.75374825359405   21.36930357368758
C         3.98753455899816   12.18631397631208   18.52176141816468
H         4.64744658924319   11.61914799206913   19.17880541413749
H         4.55034383268394   13.00238948435150   18.07140306348084
H         3.60649083366386   11.52908053788586   17.74124601451472

