74
CSD_code = CEZREF | q = 0 | S = 0 | Stoichiometry = C27H40NO2P3W | MND = 8
W         8.92707896640853    8.99283956039041    1.96636652779516
H         9.13402676891647   10.33778227293031    2.95604323664743
P         6.58144620848659    9.67573584111859    2.38064384748859
P         9.46968600078235   10.73597246836494    0.32140533784056
P         9.46489808798282    7.95809989915027    4.17275691589215
O         7.68393054254995    7.23173933477645    2.10202750915682
O         7.98219651640733    8.79778620652982   -0.01845790502770
N        10.03922061467187    7.36502627981307    0.92383105366202
C         5.38583070127350    9.42519550049849    1.01102777576510
H         4.38582444812969    9.73381631934755    1.31666117792527
H         5.38967558409616    8.36783049696709    0.75320881351619
H         5.70502282843482    9.99326885611967    0.14133104893636
C         5.61632570451498    8.86469745760091    3.72650998299888
H         4.56712417459712    9.15289902216799    3.66665982890287
H         6.01903566971926    9.17566427022641    4.68814403799356
H         5.70809928210302    7.78701238193558    3.62417427780391
C         6.23223274071610   11.42601290395853    2.83206373048499
H         5.16275789403416   11.58991531892760    2.95634038932593
H         6.61593543486671   12.08951136062596    2.06196184271675
H         6.74851959817328   11.65178818731515    3.76245712707185
C         8.17434515401501   11.59561814072840   -0.67288755644449
H         8.63509221604297   12.37224442820980   -1.28261010733165
H         7.44131986561279   12.04570144082419   -0.00725758355214
H         7.67620166902106   10.87539586581909   -1.31581434970392
C        10.63454434757227   10.33985892281973   -1.05711594705037
H        10.87970957777306   11.25626053211688   -1.59339744593610
H        10.18958778141650    9.62895502739043   -1.74984768164053
H        11.54702705058028    9.91162978752977   -0.64341944003731
C        10.34454598875207   12.22741159524207    0.96883462663365
H        10.51529876974972   12.96337727622372    0.18424574162599
H        11.29868872671353   11.92022769391648    1.38893983162567
H         9.74284174392787   12.66748998083075    1.76197001234790
C        10.00951774777569    9.21144952558473    5.40182313112104
H        10.22180677632463    8.74560167132269    6.36370730459581
H         9.22589879212512    9.95829393458897    5.51426916463988
H        10.90369099691293    9.70118926381915    5.02385349428779
C         8.24589025434933    7.04769038037668    5.21470476989398
H         8.74756759904089    6.63838616762052    6.09134990580667
H         7.80522066620859    6.23504327525318    4.64256102720274
H         7.46116218396497    7.72865620441684    5.53198052789234
C        10.87585292424057    6.77239022162837    4.38982290871728
H        11.11362754521663    6.68693559086576    5.44964607002317
H        11.75190925927316    7.13500822744438    3.85562494279818
H        10.60592485009323    5.79062895647815    4.00594125019044
C         8.33463583723883    6.10447076967494    2.01029944468133
C         9.66209602007712    6.10583758615695    1.52174447509967
C        10.42384372558321    4.95392670124208    1.51685666524708
H        11.44604726888084    4.97306773934010    1.17014720636746
C         9.88295333265965    3.76797388401589    1.99215752038155
H        10.48466152535037    2.87195774357390    2.00903861948520
C         8.56460589314042    3.73362743589551    2.41572924406160
H         8.13389112422115    2.80079928451080    2.75131001728027
C         7.79239721789325    4.87764730907447    2.42679350841320
H         6.76391130633732    4.84916166187032    2.75938002194609
C         9.70420518097396    7.25624216892504   -0.47979048441096
C         8.55145544813682    7.97654755898395   -0.85766312030131
C         8.08269412331755    7.82394892556956   -2.17392767267836
H         7.18811078221951    8.35510613409588   -2.46672934174353
C         8.74959451300082    7.01245513257663   -3.06646534403800
H         8.37308785917172    6.90839014285205   -4.07425336463207
C         9.89251881472948    6.32869260471230   -2.68391503545282
H        10.41086170178093    5.69553899830096   -3.38777957621343
C        10.35592308214446    6.43782152692032   -1.38304109468541
H        11.22183383215970    5.86898161676312   -1.08194196464788
C        11.09325114464378    9.04662940948792    2.06064028397837
C        11.32898300072801    7.91389911447346    1.27330020257545
C        12.58586571680859    7.46707294354487    0.92202636017140
H        12.74654347205401    6.61206383296327    0.28200074548959
C        13.68536759641180    8.17007284834824    1.40818069493297
H        14.68309723300558    7.84500036922874    1.15189620027917
C        13.49897017004030    9.27810281596752    2.21585360822677
H        14.36150665247537    9.81071508989300    2.59380057988731
C        12.22153039959944    9.71780036405550    2.53662727086269
H        12.10781577168189   10.59681023716099    3.16184317483269

