67
CSD_code = CEZSEI | q = 0 | S = 0 | Stoichiometry = C31H24Cl4F6NRh | MND = 8
Rh        7.81185854176746    3.85448441651638    8.13449186582876
Cl        8.80657884119282    8.37141822166280   11.54085067441648
Cl       11.21472149147853    8.19600376334753    6.70636736626272
Cl       11.47248379680505    0.68430242609396    5.00807852604180
F        10.50916564528734    9.32133368152925    9.33671017957786
F        10.70881888550294    4.15308991883460    9.61817907348694
F         9.81801893191489    5.63202568493424    6.49437252416555
N         8.32113193637915    2.65431693821446   10.89472701797075
F         8.95977107243142    1.73989632941286    5.95253327912296
F         7.73311716653549    5.77979904062441   10.71455815414875
C         8.75690524631260    5.62240492788458    8.59734553739855
C         9.58871470501394    6.24831217394082    7.67597456975967
C         6.75541245836731    3.78370132083908    6.08806111857988
C         8.54381775344261    6.32102227835983    9.77866145876495
C         9.71339933976300    3.06763981293840    7.75248317494882
C         6.52700645985095    5.02682217168764    6.73497424456187
C         6.22763009500036    2.73981596473590    6.92383276342210
C         9.11531877961231    7.55857172821784   10.05457462774761
C         9.98320057757056    2.20256485476663    6.69402872203549
C         8.54885814991296    2.12780352945286   12.12234510263334
C         5.61893706155948    3.36294050815812    8.06302441354439
C         5.82754074055319    4.77239297849428    7.97479839136435
C         6.69203578922550    6.36776963416823    6.08816544793808
H         6.81546365045500    7.15863752040491    6.82533889685187
H         5.79993013440590    6.58765535497402    5.49759019980742
H         7.54989435320928    6.37833534970921    5.42072221749747
C         9.94648795419718    8.13027582477851    9.09846145318578
C         5.14700379459272    5.81018756630912    8.81653905944980
H         5.10727619746795    5.51169623175538    9.86165723482851
H         4.12465204962568    5.95203745374051    8.46020814028395
H         5.66368154735221    6.76515527167360    8.75631483961206
C        11.25075902001368    1.74011013747916    6.35099854993966
C         7.21908062564529    3.66356396860163    4.66968219839096
H         8.17792100329036    4.15767039172679    4.52428872707832
H         6.48778502422767    4.14446004986692    4.01739963682776
H         7.31828123640264    2.62480746289650    4.37265683679476
C        10.19187700558992    7.48186543776576    7.89340176794529
C         5.98575234940419    1.31563933534407    6.52617000070951
H         6.71029266700126    0.97823885127408    5.79260060766719
H         4.98787992340871    1.23176479241234    6.09004548675813
H         6.03491044481004    0.65244101034025    7.38724558341223
C        10.84305322193442    3.39432686023029    8.50493447169856
C         4.73743408614693    2.67152049776507    9.05717640963738
H         5.11472912856178    1.68207757622405    9.30806251287663
H         3.74163510880492    2.55303096570278    8.62531008295748
H         4.64420066606173    3.25501177296675    9.96990128980435
C         7.62559935521288    2.38571903746658   13.14498650832657
C         6.42322612983234    3.23052688064052   12.86877476641446
H         6.71873977852560    4.17256736496602   12.40984609148797
H         5.87931697189203    3.43578523941314   13.78649134710677
H         5.75582262808650    2.71791101989365   12.17545224417074
Cl       13.46053139902991    3.43133134949114    9.21359984136906
F        13.56694283632211    1.71773298704393    6.81257977807975
C         8.12711500503719    3.11594303320903    9.84117952442543
C        12.13399784709280    2.96375193794021    8.21812816307956
C        12.33498187855011    2.14161008610860    7.11760406186273
C         9.69067545710536    1.34287478262201   12.32816699198511
C         7.86699774210623    1.83321087625961   14.39201501915190
H         7.17063694307649    2.01901318864652   15.19583886877663
C         9.88975486570957    0.81166655982994   13.59304564317131
H        10.76332654753666    0.20449943419456   13.77662755483821
C        10.66625454944885    1.11717408196941   11.21796355855336
H        10.15524796944556    0.88482854473444   10.28433085486988
H        11.34740560438607    0.30734216269687   11.46366297849940
H        11.25208629772574    2.02123118891148   11.05601280575512
C         8.98802394359879    1.05162380006063   14.61545393855078
H         9.16079159217937    0.62851445521967   15.59329502174325

