49
CSD_code = CEZSIM | q = -1 | S = 0 | Stoichiometry = C22H15Cl5F6Rh(1-) | MND = 8
Rh        1.71318644015889   15.38374190203100    4.08681707106343
Cl        5.22425689035738   15.58239916633037   -0.37061635578547
Cl        1.78471954624224   17.68439805429485    3.83332918393058
Cl        6.52723350528287   12.31888696644177    3.72220286770184
Cl        2.74235982667863   15.08618816687781    9.70364332488071
Cl        6.36304569645675   17.61665303219734    6.61151692430694
F         2.92613127440787   16.19510110931173    1.29515216835726
F         4.60382526674705   16.85525133926625    4.48383875167067
F         4.06599186014453   13.33430562082707    4.87722535763769
F         6.86096163229068   13.63060409062251    1.10510439665862
F         1.42010940365149   14.62028519265711    7.18687409717475
F         5.19099684328180   16.62665504725704    9.12935239105856
C         4.45940457352412   16.33943598715032    8.03536796207160
C        -0.41880614919734   14.55145642910547    4.83832495859722
C         0.10322176486161   14.98791588892510    2.61732780130172
C        -1.48237622186036   16.67625458925280    3.78140507243068
H        -1.92200072189593   16.83635888532265    4.76277290450426
H        -2.28277378748284   16.53531571907098    3.05205438501166
H        -0.91962617606896   17.56754605685377    3.50434226074053
C         0.44867704839436   13.51417654497665    4.36888207719048
C         0.75465051551716   12.23233530613211    5.07970843530464
H         1.72580220183822   11.84527765748497    4.78088515201932
H        -0.00379051065573   11.48226629025621    4.83920122555543
H         0.76803785547149   12.38065314709797    6.15564740148839
C         4.32366224408763   13.90749865315886    3.67809952288851
C         5.47105570916886   13.48806742445572    3.01693635595789
C        -1.20759381324254   14.56090417657071    6.11321486705025
H        -0.88118228883312   13.76777495533917    6.77814224818351
H        -2.26521721450074   14.40778712607815    5.88287252593754
H        -1.10703625906000   15.50808800251072    6.63929638011983
C        -0.08354253526287   15.56101880174818    1.24423086570388
H         0.12265282685400   16.62936147968189    1.24736830542133
H        -1.11535887029798   15.40801983882897    0.91628330757491
H         0.58125328539937   15.08843030472318    0.52604213139759
C         4.89065596618769   14.94334302199566    1.19642052763274
C         3.43085002633026   14.84876432776477    3.16875145519860
C         2.89853886200048   15.74119301086230    5.71758916288700
C         3.75729334554812   15.33131823267591    1.90107521087816
C         4.88314707981618   16.74818802219326    6.78000965590059
C         3.27981288046931   15.62295742176626    8.15285496902362
C         2.54565019278006   15.34313940472149    7.00688176183240
C         4.10718566465794   16.44491614944323    5.66706542078912
C         5.75644863532334   14.02200801987825    1.76869256495014
C         1.31200248580370   12.75227317587440    2.03077991519897
H         1.71421152665035   13.23352346417270    1.14182128618197
H         0.54156468054781   12.04244773208031    1.71903279781943
H         2.11422460374209   12.19302080185905    2.50812273779552
C        -0.58354206668513   15.48037643882967    3.78639696312358
C         0.70872445436392   13.75411782304603    2.97055924568446

