50
CSD_code = CEZSAE | q = 0 | S = 0 | Stoichiometry = C23H15Cl4F6ORh | MND = 8
Rh        1.57514404346228    3.74727671103534   13.36579841451612
Cl        2.15639933439675   -0.61499613415166   17.04812067509952
Cl       -2.82824617958044    0.81085217524832   15.52018963478374
Cl       -0.45511080878020   -0.80688380216335   10.49326077595824
Cl       -2.05428386976776    4.09308364936244    8.87383725087330
F         2.94994052716377    1.55766212159873   15.24174080459729
F        -0.78164390286234   -0.74388136845490   16.96074196143506
F        -1.39064653288259    2.81381946104557   13.93839446115674
F         1.15939207918251    0.70530784443136   12.34535945242751
F        -1.98009132930778    1.14541530437715    8.88681053544127
F        -0.25007442699011    4.98561339378509   10.94209409179710
O         3.79591545450683    2.12877130934500   12.20860096366671
C         2.93712181928312    2.71588503612845   12.66886524632387
C         0.81014494689488    2.21932637897995   14.52718971641333
C         1.61357612400732    1.38489071383671   15.29341934343026
C         1.10970802029964    0.38475951396510   16.11965429008592
C        -0.26928619795187    0.21008060913387   16.17707534809849
C        -1.12258069886963    1.02265162081129   15.43849327475637
C        -0.55834133943157    2.00847858223243   14.63525136920741
C         0.47053558429140    2.90217548893126   11.78427185945355
C         0.39388025301694    1.52277917001281   11.58715544251249
C        -0.41430765913484    0.90602745630643   10.63772183210658
C        -1.18900998703182    1.70599342831679    9.80644379051332
C        -1.12790133667874    3.08772778541976    9.91919234517487
C        -0.30226159660429    3.64277458828415   10.89425519871260
C         2.83389814770183    5.55652952619606   13.82647757616482
C         2.32398713425059    4.96592680581415   15.02760641712045
C         0.88594529393818    5.10628738678616   14.99929591159629
C         0.52092741549267    5.73298554914223   13.77647152645450
C         1.72674169656755    6.00507309046028   13.03582618887182
C         4.27479206109528    5.85142515821771   13.54696402956205
H         4.92765329942045    5.11697243865089   14.01272034107409
H         4.52001930807935    6.83296813151570   13.95737545237432
H         4.47753606052861    5.87255262935634   12.47869254840445
C         3.14130927044526    4.61198687279020   16.23299846879578
H         2.59365356990792    3.95229033319285   16.90113625602194
H         3.38912749258919    5.52399951111196   16.77965736874020
H         4.06863862321522    4.11797727723491   15.95293493397269
C        -0.03111648375839    4.90571751656255   16.16581370688368
H        -1.04166408500190    4.67711862247845   15.83760611354654
H        -0.06446474096554    5.82911423010926   16.74776263090862
H         0.31339807803813    4.10531710811451   16.81708388401061
C        -0.84978738710327    6.27189867141531   13.50404755094965
H        -0.91128388632462    6.71715037494809   12.51692808306578
H        -1.08276333627453    7.03678047653822   14.24674549458612
H        -1.60234597185022    5.48934006462330   13.57513888744892
C         1.86694589355996    6.91353026987815   11.85389288307173
H         2.62652316125580    6.55283562539582   11.16368069385525
H         2.16998293716406    7.90219778987465   12.20459150936091
H         0.93237412741504    7.01123350176083   11.31251346462562

