57
CSD_code = CEZTOT | q = 0 | S = 0 | Stoichiometry = C25H24Cl3F3NRh | MND = 8
Rh        0.05208407441826   12.75303923029096    5.23172470963776
Cl       -1.21220602059030   12.01525859563456    7.05416379271804
Cl        5.29991570418478   13.74381460636934    7.45846133321103
Cl        1.08301222858317   16.61305902286689    9.24227976661518
F         3.29635912657449   12.50904649453175    5.74236034973059
F        -0.38347009911781   15.00239728772657    7.29974465919280
F         3.89492835671164   15.74156796729245    9.10335025399623
N         1.37427523576428   10.06075081594046    5.79970866709055
C         2.75226097401465   13.43103618502431    6.56838802107940
C         1.38421894909832   13.66867414503422    6.50173458028018
C         0.95068111614029   11.11474759605166    5.53590694089698
C         0.91970227842566   14.67156366958682    7.34989248789326
C        -0.44819832344726   12.52011459270895    3.04980690752842
C        -1.52583413390172   14.07667779469946    4.39421921046076
C         0.44782109610786   13.62815552404592    3.28055119848541
C        -0.26851357828142   14.62020341292333    4.04966967309380
C         3.61446378263631   14.10366944975914    7.42829955243277
C         3.08748339338789   15.07879268787182    8.26560734753549
C         1.74694074844159    8.81631116979272    6.19078952576135
C         0.79142795860461    7.99299671352965    6.80380735748290
C         1.73176520482726   15.38199609649654    8.22800090024913
C        -1.63781411175241   12.76621226507171    3.77558046163589
C         3.06555787567063    8.39923040881279    5.97084452620043
C         1.73202777288436   13.86763392163074    2.55016057809358
H         2.38189734032502   14.53526834237009    3.11077215596448
H         1.52222656040856   14.32689470457605    1.58189238363330
H         2.26669711151704   12.93633881469562    2.37861034042607
C        -2.66469582605446   14.76812588365467    5.07258709883592
H        -3.12096310782720   14.11699263796199    5.81598992058537
H        -3.42359924371877   15.02903997946426    4.33253733659976
H        -2.33483658832766   15.67401489143726    5.57257816726395
C        -0.18988037530398   11.38697864506049    2.10578898166389
H         0.86566984092482   11.12538832567435    2.08311340395980
H        -0.48722324686690   11.68561619316218    1.09857919470993
H        -0.75867743360593   10.50188223023201    2.38142147621563
C         0.19753354303757   16.02470051377971    4.27652024847367
H        -0.31049426330714   16.47780775483922    5.12354519732833
H        -0.02081156836997   16.61928934616869    3.38721561298978
H         1.27035309270563   16.06429912992144    4.45650094160401
C         1.19718786217355    6.73150385577128    7.21173716038569
H         0.48281816677546    6.07926257373347    7.69134329825471
C         2.49805455651890    6.30264635612621    7.01171646061858
H         2.79389119752318    5.31676720911507    7.33736306895664
C         4.04217805664361    9.31343411775620    5.30452019229696
H         3.64958997959803    9.66836512745563    4.35261622061924
H         4.98731727017523    8.80659705610605    5.13125453934525
H         4.22279560058163   10.19118670112303    5.92243077538517
C        -2.90133738890331   11.96516792137208    3.75551492961208
H        -2.73825260225313   10.97930015853415    3.32691515132630
H        -3.65287373393625   12.48470818908132    3.15831414159679
H        -3.29411517334509   11.84394576869172    4.76394517782611
C         3.42159345249867    7.12823270575999    6.39327759277131
H         4.43303322090157    6.78415067205327    6.23700264455731
C        -0.61047384713528    8.47156043834257    6.98694290906836
H        -0.63466013380518    9.44537676973664    7.47562481316773
H        -1.18552239176600    7.76280519148638    7.57587162357192
H        -1.09600953706795    8.59540214099735    6.01840403904120

