72
CSD_code = CEZTIN | q = 0 | S = 0 | Stoichiometry = C34H30AsCl3F3Rh | MND = 8
Rh        2.71026190206359    8.90717869672888   14.20262337436755
As        0.30895835702647    9.20251459616358   14.38687394863179
Cl        2.66849821341670   10.71004070832438   15.68613666309149
Cl        4.99762838988168   13.50194714178724   11.69978996976486
Cl        0.65731086873178   11.24645221059408    9.39987086634433
F         4.71989067310289   11.28567897807402   13.57190633374009
F         2.80509668826461   13.24573761503429    9.75206196968340
F         0.97195522695848    9.29603216773529   11.54184038356645
C         2.77905778159982   10.28320079218462   12.68778705426835
C         3.74623247285577   11.28637194001363   12.64689895394702
C         3.78196097073905   12.28203041078152   11.67568182080682
C         2.81060736115406   12.28074585244618   10.68125695692367
C         1.85646587806279   11.27325960996309   10.63536521982500
C         1.88433988065352   10.30140163142967   11.62615349234950
C         3.88927910675728    7.52232197769086   15.55563464833438
C         4.72406651993297    8.10326869200174   14.52724533512287
C         4.24349199679185    7.64620942275809   13.25966506120624
C         3.05736966585154    6.88404787708504   13.49119859206703
C         2.86582232062243    6.78231997397428   14.92769322926331
C         4.19075344697692    7.63294732618519   17.01652943633153
H         4.18753503890790    8.67625564846399   17.33219730022282
H         5.18392909983493    7.22677400528872   17.21242333187516
H         3.46839303971475    7.08486514387209   17.61698313160751
C         6.01778845624064    8.79664137744972   14.80717023546547
H         6.44020347504155    9.22537897689837   13.90337159227418
H         6.73066806262984    8.08103675779500   15.22181583472596
H         5.87559511035565    9.59709777984597   15.53032474497516
C         4.92994264528137    7.81581355802625   11.94102542130630
H         4.21463926597244    7.82555868116186   11.12171248285754
H         5.61656419471742    6.98127000000173   11.78639848091212
H         5.50223632914849    8.73991433160108   11.90951217064430
C         2.33460445014714    6.05672575380795   12.47593270834642
H         1.30923359246515    5.86450216802641   12.78699657091501
H         2.84393245650516    5.09780899670960   12.35788653598293
H         2.31519849974936    6.55279390725924   11.50832250653807
C         1.88718724029309    5.84958572672952   15.57345610442427
H         1.81878777937655    6.02145637914502   16.64531440648256
H         2.21511469393261    4.82065815491017   15.41178683983636
H         0.88942664895540    5.95557640274017   15.14419832692239
C        -0.91079823391305    7.70639296605861   14.01511845252022
C        -1.04262645981823    7.19022877735411   12.72799754493418
H        -0.50189499713604    7.64529131291864   11.91128942128824
C        -1.86635626324744    6.10467551299656   12.48251849540866
H        -1.96353446191278    5.72268186090562   11.47648406319793
C        -2.56020923320960    5.50565617110564   13.52070934226906
H        -3.20014494640830    4.65727730228130   13.32865002594026
C        -2.42474373222677    5.99898585639110   14.80695375733037
H        -2.95799633735478    5.53504827477637   15.62425557474006
C        -1.60441682915062    7.08780903370455   15.05237666821695
H        -1.50388756733027    7.46377231400937   16.06507640064426
C        -0.26548384670869    9.58744749351411   16.20458666587681
C        -1.38929434994022   10.36583334856576   16.45001062152210
H        -1.94312399199064   10.78718756637424   15.61645934564118
C        -1.79699562924483   10.61119996792112   17.75057179613695
H        -2.66735613322202   11.22479926477407   17.93431685119931
C        -1.08856240495875   10.07701201520683   18.81344249423898
H        -1.40433742007880   10.27471790796721   19.82732771385778
C         0.02960482878622    9.29440740035523   18.57537071269024
H         0.58616472511125    8.88110989067821   19.40446327283712
C         0.43641847326353    9.05156405906937   17.27641432624437
H         1.32386825491228    8.46072599218863   17.07889619106340
C        -0.52151098618345   10.69218376597171   13.45626227107936
C        -1.63340558912743   10.55212625822857   12.63579965145484
H        -2.09986684047553    9.57993418944198   12.52054167634577
C        -2.14074958685272   11.64905038469769   11.95877149644451
H        -3.00244978640627   11.53127761713688   11.31740400386249
C        -1.54189104229159   12.88970414097084   12.09464325020574
H        -1.93212051579432   13.74012131911494   11.55524988006817
C        -0.44060479064677   13.03765529317614   12.92238296519653
H         0.02754874021166   14.00459831549389   13.03444073449025
C         0.06721538136549   11.94413978726309   13.60010715938627
H         0.93131377129635   12.05116326870952   14.24656513764359

