72
CSD_code = CEZTEJ | q = 0 | S = 0 | Stoichiometry = C34H30Cl3F3PRh | MND = 8
Rh        2.46797436568729    8.95233664846655   14.20276271019376
P         0.19064946870991    9.24603712029325   14.41818020218691
Cl        2.54145653225186   10.70616758076854   15.74103692974298
Cl        4.82268013978666   13.59781617429926   11.84814691340731
Cl        0.67088616552803   11.28272158134441    9.27872723932239
F         0.89834939436595    9.32890679357376   11.41667213251128
F         4.48607353434635   11.36838663822163   13.67191135739744
F         2.74499255813026   13.32717963355200    9.77749378773388
C         2.59341953528450   10.34604989229287   12.69561944417698
C         1.76948192709048   10.35162124044874   11.57693136721838
C         4.49098384610488    8.16569530451917   14.55037429309974
C        -0.89049002330226    7.79538915254148   14.11653751080272
C         3.63782137793772    7.51645567665518   15.52147339879849
C        -0.58857748371491   10.59054644801215   13.46574085968488
C        -0.31765795676931    9.67303533112654   16.11919315026108
C         3.55046738298267   11.36005468479098   12.70970833032960
C         2.66255552244424    6.76955855178376   14.82482105963528
C         2.89261710304160    6.95030403742856   13.40518815883731
C         4.06281964570339    7.76137774404129   13.25059259060150
C         1.78560234525633   11.32941183791425   10.59089442263640
C         0.32717344501361    9.03994300108235   17.17763657290746
H         1.13763799375249    8.35706577701058   16.96393017670118
C        -1.35055181013965   10.56304737106259   16.38272293108835
H        -1.86148418041706   11.05850301956805   15.56988107981202
C        -0.01336127929246   11.85427156296442   13.59122872384937
H         0.82185479869583   11.98998706049629   14.26419135083337
C         3.62568505568333   12.36319220950798   11.74697584300420
C        -1.64375107033229    7.22001928068340   15.13684331462267
H        -1.62514811630836    7.64195552674674   16.13043721315283
C         3.89878957793497    7.55248120499729   16.99395576576830
H         3.87577009671034    8.57774116271394   17.36378075203064
H         4.89147979987501    7.14685215368832   17.19437376040422
H         3.16871324669734    6.96426100220139   17.54496828548870
C         2.71376577310730   12.35552244422136   10.69929198190007
C        -2.46815114491653    5.54605468458416   13.62316268737827
H        -3.07994589885180    4.67678282719391   13.43303564623924
C        -0.93116720037848    7.21962962340730   12.84750113996867
H        -0.34953178811232    7.64730870473581   12.04908274889239
C        -1.67078866297403   10.41072641697640   12.61346558691519
H        -2.12932054481192    9.43820805122812   12.51226381145224
C        -1.72112368672504   10.82263029011592   17.69165511431795
H        -2.51958884563321   11.52227153316320   17.89114323231899
C        -2.42588435060626    6.10492617891940   14.88899706161470
H        -3.00557624899829    5.67229240237890   15.69127271283507
C        -0.04663866570802    9.29883865007418   18.48120438998203
H         0.46408726039785    8.81004090687073   19.29816690765298
C        -1.07241645531840   10.19468625481998   18.74036897345977
H        -1.36148384769058   10.40550930441001   19.75938741768884
C        -1.57637814181067   12.73195302922862   11.99983622480498
H        -1.95393837959563   13.55998934408439   11.41850960527315
C        -0.50691346199785   12.91861973149212   12.86189377639572
H        -0.05235357580126   13.89309906521907   12.95977828381849
C         1.71683380347551    5.76337531923055   15.40463264790789
H         1.51305595742495    5.96012397441180   16.45456242099300
H         2.16450260603043    4.77051888651425   15.32422473367440
H         0.76876178500450    5.74969900679723   14.87093013622348
C        -1.71887077788861    6.10902333140116   12.60287765936354
H        -1.74507326109846    5.67975069133645   11.61179614293117
C         5.75518161637565    8.87775409996453   14.90877396556787
H         6.21315255240404    9.33384780721781   14.03615043106066
H         6.46066229542404    8.16749827089214   15.34448281356638
H         5.56088430345474    9.66022121251351   15.63982753108380
C         4.78773336689585    7.99437971629620   11.96242273085812
H         4.09676705135702    8.04146201882561   11.12366657150697
H         5.47898498339844    7.16704788474427   11.78953946915036
H         5.36010337793962    8.91846529783317   11.99022055206796
C         2.27013669529309    6.13234564829495   12.31822096824373
H         1.29345854378377    5.76079897491704   12.61686079319168
H         2.91199334172963    5.27644797045111   12.09846162182334
H         2.15669673723354    6.71244674308989   11.40517013851255
C        -2.15952881253509   11.48178588001313   11.88463605249981
H        -2.99680123804565   11.33514541737448   11.21799368857883

