109
CSD_code = CEZTIL | q = 0 | S = 0 | Stoichiometry = C46H59MoNO2 | MND = 4
Mo       -7.39686689128650  -15.69735746813976   -0.78557903336624
C        -5.87863581438863  -14.97925222484522   -1.76235776666580
H        -5.59883839205529  -13.99021712817130   -1.36309865406740
C        -4.88982926397166  -15.41123525410442   -2.80628149545383
C        -4.14830607373904  -14.19662336371347   -3.39698535359549
H        -4.85686921487736  -13.51932770161605   -3.86867332504528
H        -3.42413531147566  -14.51266802243553   -4.14505520415963
H        -3.61555714415016  -13.65869803867586   -2.61473676141408
C        -5.63673406331239  -16.13891177938278   -3.93558169909087
H        -5.99815499625843  -17.09663352753947   -3.57331285608364
H        -4.99514783549244  -16.30172955958044   -4.79779807063918
H        -6.48921400099415  -15.53937739818772   -4.24930946026211
C        -3.82813961543183  -16.33056186724515   -2.20283345726725
C        -2.97093824147613  -17.05332460290394   -3.02665782168679
H        -3.06380846780793  -16.98750222920387   -4.09969837027284
C        -1.98707158384099  -17.86798025522146   -2.49618889557399
H        -1.33667037414046  -18.42193560673662   -3.15835407702524
C        -1.83459174452863  -17.97628864767008   -1.12490509771326
H        -1.06797423704345  -18.61455800688898   -0.70938331211576
C        -2.67300275956925  -17.25536093407731   -0.29361941780832
H        -2.56388395912755  -17.32748907485518    0.77893466311544
C        -3.65411056139673  -16.43687977015480   -0.82707709006687
H        -4.29925856056667  -15.88239469494706   -0.15917213764818
O        -8.91099260552140  -14.47905982441215   -1.41976776670685
C        -8.39684499358894  -13.48623136594947   -0.71591781747029
C        -8.16245502001949  -12.19448830210434   -1.24406164424888
C        -7.52735742496214  -11.28156119241709   -0.42006685746538
H        -7.30871128869763  -10.29502127531218   -0.79673656800115
C        -7.14255283262261  -11.56125981973930    0.88842154110036
C        -7.46860625898216  -12.79279427587888    1.45332911937129
C        -8.09042369218282  -13.75275831783042    0.64620585717191
C        -8.66061367946921  -11.84735842336202   -2.64029235773706
C        -7.94439472436088  -12.72470933681709   -3.67422257436856
H        -6.87820424537637  -12.50764027794664   -3.67145083907713
H        -8.33617285887027  -12.52635579794163   -4.67004487317058
H        -8.08739016178929  -13.78080200579154   -3.44451471103669
C        -8.42201496032797  -10.37934702889251   -3.00474266987521
H        -8.92306694140624   -9.71371930256954   -2.30525165553730
H        -8.82392727197961  -10.18852454822517   -3.99777247655564
H        -7.36004155119113  -10.14464648519041   -3.02339872188653
C       -10.17153865201260  -12.11766098429196   -2.69252163003801
H       -10.37340320942755  -13.16444621158886   -2.48018678913984
H       -10.56151594474974  -11.88222660381986   -3.68064205589020
H       -10.69148128187044  -11.50318982300852   -1.95895089207322
C        -6.42019568541142  -10.51966925932217    1.69083539764372
H        -7.03970890945441  -10.16553478588320    2.51558587973192
H        -6.16346060434992   -9.66689732910084    1.06744528742206
H        -5.50404038475449  -10.92826731082486    2.11537695705566
C        -7.15837581070195  -13.08309328091761    2.89308386635287
H        -7.44695806237997  -12.24485218710075    3.52498017664075
H        -6.08708988147263  -13.24567209913965    3.01958098780093
H        -7.67841554135686  -13.97510608861872    3.23698037558515
O        -6.47304406868739  -15.88605636530078    0.99866870437474
C        -7.67407355954720  -16.05486920245659    1.52564501596452
C        -8.04450221878259  -17.15754540704728    2.33031476727400
C        -9.37464164456083  -17.23628280740616    2.70714334852737
H        -9.70423514725359  -18.07359104279452    3.30163920480759
C       -10.33285528447790  -16.28607897350282    2.36185673788913
C        -9.95254371031744  -15.14088187414094    1.66402339739255
C        -8.62260927399584  -15.03110262176721    1.24237244412650
C        -6.97847150323444  -18.12770332763712    2.82189206403076
C        -5.92232912128334  -17.31211887164083    3.58405978047148
H        -5.46628371582073  -16.57930824370898    2.92298662369334
H        -5.14288050688944  -17.96908810746643    3.96405914526927
H        -6.37792658966924  -16.79155070658524    4.42535545710781
C        -7.54164793988353  -19.19333007749426    3.76612706488021
H        -7.99282532790195  -18.74183426630112    4.64724129318474
H        -6.73140004657441  -19.84001187542053    4.09634807691581
H        -8.28021637004789  -19.81412893434586    3.26347085546910
C        -6.31244136490701  -18.83415534532807    1.63442443285123
H        -7.02253576188061  -19.47620845812030    1.11664099896492
H        -5.48837486028586  -19.45346035150675    1.98292937224818
H        -5.92077587564649  -18.10769396187593    0.92394078513972
C       -11.75916065486742  -16.48014754633108    2.78291034443355
H       -11.89439787573395  -17.45745508054090    3.23915438512282
H       -12.42672804726129  -16.40067464948105    1.92571468846470
H       -12.05736045997740  -15.72033858340063    3.50603583399723
C       -10.94681288287359  -14.05511907155951    1.37329387849182
H       -11.68550327985201  -14.40553629121804    0.65124996713502
H       -10.45895888114586  -13.17415482110130    0.96098464331496
H       -11.47702656748678  -13.76885991386316    2.28097841530268
N        -7.67276304395521  -17.23954011703155   -1.49571217541325
C        -8.20369203068212  -18.46516172952482   -1.92265441036492
C        -7.15701307739011  -19.57920411639605   -1.92964435553843
C        -7.50801391054567  -20.89651965340186   -2.20438102076423
H        -8.53547701995223  -21.16042705944518   -2.40895204257098
C        -6.54848328227469  -21.89260944628253   -2.22340763204581
H        -6.83988688014801  -22.91127816555704   -2.43605077550344
C        -5.22088956120405  -21.58913815739649   -1.97414010575063
H        -4.47385996221829  -22.36910315148624   -1.99040512688130
C        -4.86098537516958  -20.28022782091374   -1.70775552084374
H        -3.82978760160189  -20.02372100735273   -1.51708480130884
C        -5.82210697144417  -19.28512031503279   -1.68709641793702
H        -5.54031145415626  -18.26174276192997   -1.47785645924708
C        -8.79165633543808  -18.33212458514239   -3.35258550275694
H        -7.98942926776045  -18.04681352727136   -4.03451070515937
H        -9.17802896097127  -19.30431846369510   -3.66377816373154
C        -9.90746162258996  -17.29495529528125   -3.39352136136504
H        -9.49863358213293  -16.32414715628309   -3.08906839630364
H       -10.28649918867843  -17.20658358080747   -4.41372906367327
C       -11.03245573200424  -17.68872279237360   -2.44255205918375
H       -11.45368872529992  -18.65105620458913   -2.74746664143009
H       -11.83071846130760  -16.94483043226338   -2.47937281832528
C       -10.48446704171647  -17.79417891132795   -1.02390996775922
H       -11.27641105076505  -18.07362271311859   -0.32500682284269
H       -10.09432262842583  -16.81492570986732   -0.72235167089618
C        -9.36177751105811  -18.82359039116687   -0.95217487220176
H        -9.75487190475897  -19.80798936092306   -1.20872733743010
H        -8.96075168927150  -18.86275989450771    0.06347664869398

