40
CSD_code = CEZVEJ | q = 0 | S = 0 | Stoichiometry = C15H20AuClN2O | MND = 2
Au        0.25412745855597   -2.97322218871157    2.07782976514260
Cl       -0.75517362906573   -4.15813182188158    3.70793914365935
N         1.52550854425439   -0.60126678316339    0.81966913240666
N         1.67614729821489   -2.24379326191680   -0.55926040835968
O         3.07202724663728    2.27093521322177    1.75200798130486
C         1.19665335874327   -1.89270250052379    0.65346776169779
C         2.21126385518567   -0.13804122791457   -0.26528501909873
H         2.56883699943817    0.86840368539805   -0.32563089445080
C         2.30442343547339   -1.17050438314786   -1.13488123341109
H         2.76552807436046   -1.19731101775687   -2.09774858220597
C         1.26515672586721    0.19078068598175    1.99883356500782
H         0.45579905829589   -0.28982998249380    2.55333476625257
H         0.96237445330163    1.19256271408416    1.68539692106012
C         2.50080892487746    0.27549492307070    2.86137784716769
C         2.77318597329298   -0.71216596174217    3.79259688981138
H         2.07510154482789   -1.52941322989630    3.90708768195774
C         3.91523447339959   -0.65731600502034    4.57288274816407
H         4.11289611400327   -1.43214811996991    5.29650158337805
C         4.79258354754577    0.39949358161711    4.41906562664700
H         5.68619335264609    0.45622329486432    5.02237005233746
C         4.53948398398400    1.39676716017327    3.49207881276800
H         5.24083969182328    2.20976391054155    3.39014125587563
C         3.39782865027544    1.34140392108856    2.70203296650348
C         3.86797334200363    3.42636718095912    1.63987634952893
H         3.91556986972202    3.97476682483935    2.58528901109606
H         3.38084170808656    4.04763060340074    0.88916569241602
H         4.88241912946890    3.18580128483364    1.30539200041007
C         1.52534049654246   -3.57177592933561   -1.16593452730652
C         2.22667643815392   -4.60570197008660   -0.28132643798058
H         3.27676649530925   -4.34873101016324   -0.15673925767505
H         2.16008215349470   -5.58847754612512   -0.73922044741294
H         1.76148831401388   -4.64920065105198    0.70067284290083
C         0.03312576248174   -3.88717951156351   -1.29838024271298
H        -0.43707227034155   -3.93387216832616   -0.31895570296867
H        -0.09949251734880   -4.84588616471626   -1.79200426126682
H        -0.46565261168222   -3.11945455284935   -1.88718419250961
C         2.16182160525389   -3.59662813927005   -2.55727165963850
H         1.68785596809468   -2.87837753355804   -3.22257252970814
H         2.02704196736739   -4.58658970139008   -2.98460505181245
H         3.22998501337922   -3.39757362144479   -2.50740994896410

