48
CSD_code = CEZVUB | q = 0 | S = 0 | Stoichiometry = C19H24Cl2NPPd | MND = 4
C         4.16356657204901    6.12088806321354   11.42438075539157
H         3.57475135452886    6.13424521519609   12.34879735428004
C         5.50336102176283    6.83228800721372   11.64722932079296
H         5.99858888903885    6.87168847820278   10.67482481222579
H         5.31326349688183    7.86604489285897   11.96079345170474
C         6.44152577893182    6.21761076175812   12.67448580109138
C         5.93791301168006    5.55227855513974   13.79911175597526
H         4.87924147963332    5.67330048174655   14.01744932963418
H         6.56174224115377    5.45005036745333   14.67901235757754
C         3.36502964840978    6.80807293310932   10.32331018323542
H         3.09881125664090    7.82007859856914   10.62561973115512
H         2.44729946129831    6.26152448308845   10.11681852050061
H         3.94529959145038    6.86816447736083    9.40468424687328
C         3.02564100973598    3.50120208543625   10.72824191522234
C         1.85466396825011    3.84123870727816   11.40105655603560
H         1.85594053033787    4.64456320631121   12.12476421831956
C         0.68708740816935    3.14272200408147   11.15381530166901
H        -0.22031006358107    3.41272290974368   11.67419404269469
C         0.68291460582915    2.09246684915412   10.25026411417955
H        -0.22985487128480    1.54670195060703   10.06296299360745
C         1.85300685826471    1.73206742848012    9.60109707957270
H         1.85524019781997    0.90042942025857    8.91238072048279
C         3.02332108117006    2.42764553198218    9.83982011462027
H         3.94590886390721    2.13419607303560    9.36000135309774
C         5.47741046929004    4.42416093619769    9.51569122181098
C         4.84089124435619    4.60612609992262    8.29185991679855
H         3.76155865179520    4.63958934369439    8.24496981827717
C         5.59096570277356    4.72102210782028    7.13452646022987
H         5.09428645383520    4.85690262017366    6.18499964335386
C         6.97378342218333    4.65605382498455    7.18950362752898
H         7.55392395257815    4.74181039468186    6.28284211987881
C         7.61299327794817    4.46449030376052    8.40452871558381
H         8.69015460669383    4.39472217688505    8.44388613924892
C         6.86875070454024    4.34820720297833    9.56447780689806
H         7.36359030553937    4.15575724209982   10.52534724815118
C         8.70981853982275    6.02181851492778   13.50651562567395
H         8.59684391214525    6.53427195509785   14.46492791947380
H         9.71950048839045    6.18525595082259   13.14230774680123
H         8.56762309987627    4.94247984138941   13.66468359956049
C         8.27107386159251    7.24697703945328   11.40098854740180
H         8.18783712986207    6.66926498180539   10.47478220408523
H         9.32319988896242    7.46088832530712   11.56935684682211
H         7.75533561148767    8.20098462516554   11.27105742848364
N         7.75260783311889    6.52469676883840   12.54127481147106
P         4.58895596314900    4.32831333381781   11.10013567363357
Cl        7.63811933167251    2.88780683890181   14.06550392028543
Cl        5.87181459818670    1.76844670545709   11.52854426513121
Pd        6.07820755812433    3.74606138453817   12.65387266347840

