40
CSD_code = CEZVAH | q = 0 | S = 0 | Stoichiometry = C17H15Cl3F3ORh | MND = 8
Rh        5.44015655862353    9.27595426821160    3.11932243341328
Cl        3.43763444960262   10.43413883176096    2.76237183606511
Cl        4.04153762875056    4.51268589823174    6.06967726313692
Cl        3.11828138490995    9.34841540605485    8.29852604505569
F         5.05659045958216    6.12383384148542    3.84138678005984
F         3.13088176092583    6.40859504708507    8.12807404304862
F         4.27188303208707   10.32880344237337    5.79162093947482
O         3.72966724779775    7.50614600736943    1.43372732989414
C         4.44916931838202    8.12151153125652    2.06286727558686
C         4.64766901326196    8.26412968273466    4.73309881573902
C         4.58720185426494    6.88135018197392    4.85662926055025
C         4.08595118620659    6.23062779335581    5.98018620525677
C         3.61996206756438    7.00614724920458    7.03646316622944
C         3.67127486570263    8.39444600323777    6.97776347807500
C         4.18573774908286    8.98699811404787    5.82810338554312
C         6.77775115108848   10.81223823013167    2.21267855200792
C         7.39524491585500    9.55169567421590    2.01462453789109
C         7.58462020740104    8.94629315209156    3.31036678769917
C         7.20160112209270    9.91821831084915    4.31336822180035
C         6.66756644716862   11.04212821857363    3.64508801134439
C         6.48947834363680   11.85678881602411    1.18231377045572
H         6.49817281406974   11.43800890323610    0.17928914093797
H         7.24561236304980   12.64164484586648    1.23931937016139
H         5.51582194237225   12.31048105992639    1.35900910857896
C         7.88775401824513    8.98316069128531    0.72133091339045
H         7.79312641549543    7.89987441546264    0.70373539923996
H         8.94385499377887    9.23255698443260    0.60287120652789
H         7.34314474169748    9.39221694768864   -0.12591819085913
C         8.36715789048225    7.69885011492378    3.57245470795558
H         8.09919196244972    7.26230382240912    4.53128626373562
H         9.43284027197546    7.93513328216972    3.58902798632545
H         8.19307981140611    6.95592676858872    2.79793427446462
C         7.50515778109547    9.80142840480710    5.77464135371670
H         6.86007739568139   10.44600682295600    6.36531235798803
H         8.54037466497118   10.10292100845460    5.94506754500346
H         7.38677209319022    8.77843522384390    6.12602683000262
C         6.25623902636292   12.34880251750840    4.24391358493997
H         5.33262007804049   12.70445851280186    3.79158350743085
H         7.03564648080393   13.09111063539954    4.06398560259099
H         6.09639449084516   12.25883333796695    5.31417089954072

