33
CSD_code = CEZYOV | q = 0 | S = 0 | Stoichiometry = C11H12MoN4O5 | MND = 6
Mo        5.68811626113256    2.81251992465809    3.77055508667445
N         4.63775728527906    1.78425984019539    1.98506609079355
N         2.98665015726959    2.05897275066225    0.21139103570477
N         3.26024762255296   -0.08908155133040    1.25472523137595
N         4.96692472939557    0.76530274878097   -0.20616351195866
C         3.64353711583869    2.67697211176655    1.34515787764603
C         3.91579926479314    0.55269713345994    2.37707184682205
C         5.60449059451035    1.39583768174648    0.93160030875933
C         2.31310720632167    0.84766408446736    0.66311979318694
C         4.26303065396273   -0.42611140721066    0.25208930490289
C         3.99423665062305    1.68968055261493   -0.77450668077504
C         6.58512415084330    3.70099413643539    5.25213354736206
O         7.11097251843535    4.22248624513252    6.11800083618810
C         4.09674686733663    3.90518073317306    4.14264574303223
O         3.21664282460552    4.56541021280670    4.43873349831420
C         5.03225491293878    1.46010052195513    5.03738414878164
O         4.68791304349299    0.71627321235378    5.82808356631449
C         7.31182352024366    1.74001882853914    3.49102326999004
O         8.28431341328636    1.15188438194680    3.41019902152556
C         6.36581718791191    4.19169138376550    2.54524391613117
O         6.78407609416458    5.01917019119827    1.88249962278085
H         4.14859871106464    3.58836160399899    1.00358684251681
H         2.87684403633782    2.94381410425723    2.08142159979433
H         3.15455186959209    0.80847449517348    3.12405486501292
H         4.63037730373741   -0.15537159441042    2.81409149851901
H         6.32818585605816    0.68927711927852    1.35359597890531
H         6.13448445139930    2.29078315395542    0.58461271578996
H         1.82261419298599    0.37120648005453   -0.18870118921784
H         1.55791138700058    1.11339086252260    1.40779305520524
H         4.98411850120568   -1.12434432894197    0.68566575780553
H         3.77222412973931   -0.90254851590044   -0.59956771356219
H         4.51152777762911    2.59113102561682   -1.11398761304644
H         3.50457970831125    1.21560187727790   -1.62811935127511

