65
CSD_code = CFPYPD | q = 0 | S = 0 | Stoichiometry = C30H22Cl4F6P2Pd | MND = 4
Cl        0.85402076533649   -1.91300157490961    0.98764055381154
Cl       -1.73174406138856    1.26575104461790    2.12382226432044
C         0.47432498608252    2.68453778537588    1.83448554790908
C         1.24700927533342    0.59525320284504    3.41549890439802
C         1.93565192660712    1.47917625249274    4.24546950061645
C         2.00460844106643    1.23438178805839    5.60327018433712
C         1.37874669210204    0.11951179330874    6.14034615435827
C         0.67897420562375   -0.74725683200708    5.31880956016391
C         0.60732315593179   -0.51108410492018    3.95636191028453
C        -0.84426193746594    2.72545396788024    2.02234441862791
C         2.84122623686472    1.21785973893671    1.03291445515764
C         2.92572877426396    1.53588774613535   -0.32512509491056
C         4.16076375492978    1.62952306081328   -0.93702419150805
C         5.31347049717251    1.38280962542320   -0.20587065002832
C         5.22931990116570    1.03736448281570    1.13244910205030
C         3.99618095892426    0.94713657790851    1.75607766274333
C        -1.66839684583476    3.97517801991881    2.16441515430348
F        -2.74442917363585    3.99468616882461    1.37908495743803
F        -2.11614390752904    4.13060843824748    3.42600866737444
F        -0.95136924118836    5.07192146032925    1.88713548373780
H         1.05567439473420    3.58531068607476    1.69984497122418
H         2.41176124673437    2.35409479342113    3.82302984228687
H         2.54308036685292    1.91580409006580    6.24523092181178
H         1.43452810772116   -0.06828735896118    7.20220394567213
H         0.18539141063996   -1.61092136092758    5.73828608304439
H         0.06972562307697   -1.18955801239019    3.30974691476833
H         2.01083479750860    1.71083037777917   -0.89373803674686
H         4.22755290873031    1.88037932961956   -1.98527649434171
H         6.27864104757973    1.44503273249084   -0.68585006184598
H         6.12760675532008    0.82574181150572    1.69325287004644
H         3.93115269715524    0.65284418511742    2.79366237411168
Pd        0.00002664849749    0.00043066733071   -0.00034157596688
P         1.15138486820290    1.00524308766807    1.64797320915632
Cl       -0.85249831285281    1.91479837926556   -0.98747299890374
P        -1.15139197573970   -1.00518439096125   -1.64800080327675
C        -0.47402493167465   -2.68437343867270   -1.83384175950255
C        -1.24730845539352   -0.59569279989291   -3.41560868831152
C        -2.84118124450654   -1.21804394821428   -1.03285799494776
C         0.84447829108186   -2.72508744135877   -2.02234745933380
H        -1.05514047833326   -3.58517219256229   -1.69836696729540
C        -1.93563958629416   -1.47978833031200   -4.24564121592422
C        -0.60802325536716    0.51093618422224   -3.95636475954683
C        -2.92570615551469   -1.53569084597775    0.32526378256007
C        -3.99614646573504   -0.94776494677002   -1.75616913469603
Cl        1.73153259975378   -1.26519774722010   -2.12478749344724
C         1.66881238456194   -3.97467571939183   -2.16443590343291
C        -2.00468050505629   -1.23484464809659   -5.60341698896884
H        -2.41143367423121   -2.35493210865777   -3.82331535789135
C        -0.67972869222923    0.74723122420624   -5.31877815782795
H        -0.07070178351838    1.18952306932203   -3.30963931717601
C        -4.16075953088135   -1.62932562218110    0.93712603661291
H        -2.01079390998360   -1.71031261220184    0.89394436482382
C        -5.22930793084707   -1.03801750430462   -1.13259459468418
H        -3.93110502591274   -0.65380208991185   -2.79384681760938
F         2.74495651723837   -3.99398284049002   -1.37924833443287
F         2.11639232601144   -4.13008888045704   -3.42608408633357
F         0.95200619852949   -5.07153344530999   -1.88699358945556
C        -1.37920662025085   -0.11970424144134   -6.14038680557970
H        -2.54294041902621   -1.91635686505937   -6.24546045857278
H        -0.18644145295300    1.61111540957613   -5.73814257928324
C        -5.31346897733772   -1.38302023835839    0.20583586569353
H        -4.22759329113786   -1.87987941443506    1.98544899340555
H        -6.12760047809896   -0.82673483848620   -1.69352206916582
H        -1.43506732984884    0.06818772639407   -7.20222343450244
H        -6.27865311155845   -1.44522851315464    0.68578921858776

