48
CSD_code = CGLCOB | q = 0 | S = 0 | Stoichiometry = C11H23ClCoN4O7P | MND = 6
Co        2.37038463369582    6.89705907028335    4.06749683107890
Cl        1.12700565146219    8.60852488143351    3.56722781221742
P         3.62519388905014    5.10464223297276    4.42975694748362
O         0.21868243272087    5.47830356830106    5.15152285263207
O         3.34690923814328    6.83009115687980    1.35211937479135
O         4.68475579136073    8.13119483432555    3.06303440636507
O         1.30996925925513    7.08224341463609    6.75908572987141
O         3.96297988357898    4.59628779637750    5.93789936177728
O         5.09960637364372    4.96371507317852    3.84081372663013
O         2.94458947983511    3.84359128204531    3.71955023368085
N         0.84572164954734    5.79522949548385    4.07683238194193
N         2.40302617452673    6.45325191317766    2.24220124802958
N         3.89715280063375    8.01222057485450    4.07167800760038
N         2.26535316940818    7.44806512057054    5.87070316874082
C        -0.68733903894685    4.48302077728565    2.67901660999207
C         0.50503116945414    5.35451873032421    2.90450618873575
C         1.40030538389518    5.74271983793328    1.85045296561700
C         1.18943006967509    5.32323132780036    0.43561071784222
C         5.24981454079519    9.57263980649764    5.40704386866531
C         4.11025586785454    8.62815210605679    5.19746252180814
C         3.14903037338895    8.32330974419290    6.21991370344909
C         3.18531531751476    8.97189455840278    7.56237101896388
C         2.93561714369378    4.39064278775854    6.90225165410498
C         6.21457694272565    5.74764214240880    4.24895439145944
C         3.57850806369147    2.56616189609986    3.70463480090207
H        -1.20443152725082    4.35090350322691    3.62671430671698
H        -0.38397427476579    3.50956181960281    2.29656427417402
H        -1.36497997187252    4.94235288455793    1.96185468750739
H         1.98910326121183    5.71685451296899   -0.18553518139179
H         0.23405024724951    5.70182464484908    0.07691387453164
H         1.17513266504478    4.23710106053538    0.36624486891667
H         5.80659194661442    9.65744227729261    4.47650350913908
H         5.91370630065284    9.21318780152048    6.19233230489266
H         4.87991172040396   10.55616729950513    5.69031570140850
H         2.37718128042971    8.58641677996188    8.17799465883445
H         3.06626374554251   10.04811400995346    7.45136880158302
H         4.14055902525531    8.78333272128229    8.04942343837418
H         3.22561284363729    3.52029629640821    7.49125091776796
H         1.97183081990057    4.20451774913425    6.42734896979052
H         2.85573027899503    5.25987093705775    7.55542761006155
H         7.10060015044075    5.18634780502089    3.95424405170120
H         6.21454543855891    5.89146697366597    5.32932272214853
H         6.20652694182031    6.71103078799312    3.73691164825386
H         2.78569585483173    1.82847768868971    3.58584981289768
H         4.11811733371884    2.38628114571056    4.63526639934392
H         4.27361069339268    2.50711279187336    2.86743657345902
H         0.70646097592285    6.42234301134763    6.23162569328905
H         3.99437798966304    7.42864136856719    1.88897983221905

