85
CSD_code = CHPFBF | q = 0 | S = 0 | Stoichiometry = C31H44F4FeO3P2 | MND = 5
Fe       -0.50111955108885    2.15228896930590    3.85745796750070
P         0.69186480051879    3.95880270552938    3.43229579048317
P         0.22689596488649    1.17016229395087    2.03828338665798
F         3.80665945642585    4.26469831149916    1.16585485347739
F         2.14355480572276    5.18582440401872    0.14149293454862
F         3.31528969208523    1.93604492543736   -0.12078266586511
F         1.61812938356769    2.82542464218501   -1.11165088746034
O         0.59795919347370    0.09867191752940    5.61229449286383
O        -1.61504589220349    2.93842143061570    6.41011066533724
O        -3.33025849571715    2.35688518779474    3.17293146860299
C         0.23801807488595    0.91209753757046    4.87791218978287
C        -1.16412996131307    2.65283525444207    5.38992122276122
C        -2.18960608334555    2.28509549249397    3.33350105867108
C        -0.11455239783812    5.55702997008466    2.92206794701408
C        -1.08588322603104    5.31906919145059    1.76955300501705
C        -1.82012348173837    6.60807635771754    1.41202939590752
C        -2.57025307466228    7.14822170761098    2.62488290053661
C        -1.60027623602260    7.39776850401788    3.77461132960392
C        -0.85776099546479    6.11395584457316    4.13538899694462
C         2.05624262611782    4.53771471686802    4.56303904601437
C         2.81484822412181    5.79042532122629    4.12528978182772
C         3.89994615737476    6.13040953099800    5.14737577396781
C         4.86368839051404    4.96400669473207    5.33072465303583
C         4.10020810818531    3.72600769834279    5.78765300390137
C         3.02220423588991    3.36993565250728    4.77002137964764
C         1.35604228567091   -0.31512328747569    2.15270858593600
C         2.66207394009618    0.11047415967440    2.82950127864597
C         3.52832003188012   -1.10679000219785    3.13367808696852
C         3.84985039074321   -1.84884399467276    1.84135628553600
C         2.56031139807544   -2.25991106482313    1.14052796171677
C         1.67495208789804   -1.04690101050797    0.84847716671804
C        -0.84507498588564    0.77906414810342    0.57442635571454
C        -1.56837580670418    2.01873024801277    0.05450373785564
C        -2.48401979658585    1.64241975489987   -1.10778130699768
C        -3.49294349083744    0.58453300803435   -0.67256208008763
C        -2.76935943474431   -0.65774353134311   -0.16317028241538
C        -1.84704517936082   -0.29484395360346    0.99728704343053
C         1.57888854611504    3.57194825022559    1.89101088952564
C         2.51760142078501    4.07524103874094    0.80934285759804
C         2.23452247594630    2.71884879545573    0.08428552279227
C         1.35108747026955    2.38991037329758    1.27513744065005
H         0.66494315040551    6.25208756850783    2.58884653801378
H        -0.54565904576364    4.94769189588730    0.89453576387879
H        -1.81165742725547    4.55793140664323    2.06730643365810
H        -1.09869049387641    7.35218010066223    1.06615043971010
H        -2.51799735692042    6.41430713280105    0.59543783868888
H        -3.08468948642113    8.07480594118636    2.36374659992725
H        -3.32329541411088    6.42189725969742    2.93806343136112
H        -0.87777923675004    8.16325608532550    3.48008540953118
H        -2.14088655641178    7.76580800578720    4.64869642743955
H        -0.16027599525806    6.31012187058237    4.95403699281900
H        -1.57404708833617    5.36009647239210    4.48017790795554
H         1.54577714820152    4.73385308895551    5.51902290824729
H         2.14133857227986    6.64439280385862    4.04103389333133
H         3.28250955783966    5.62092395532201    3.15429461809379
H         4.44365323837196    7.01577801617545    4.81208538824472
H         3.43170655879462    6.36774041289136    6.10602812365889
H         5.62851412773640    5.22483221980150    6.06438693021610
H         5.36298781057581    4.75319028243910    4.38253156746246
H         3.63538559036694    3.91956128207724    6.75728028649377
H         4.78375922751676    2.88319531940241    5.90576261906910
H         3.49551517269362    3.11918410196822    3.81578601105803
H         2.46063725168540    2.49610939001806    5.11252868026694
H         0.81925417911717   -0.99919507723483    2.82831220155501
H         3.21417572446037    0.77998985010167    2.16448463754800
H         2.44650463363290    0.65620849057716    3.74948621412193
H         2.99637159526138   -1.77004472137779    3.81936876832748
H         4.44982126650528   -0.78656450287774    3.62335904118205
H         4.45414424207128   -2.73218709427315    2.05515023277139
H         4.42786487347776   -1.19547844690864    1.18412608287399
H         2.79125297978292   -2.76919263810551    0.20274370510382
H         2.01091426097849   -2.95991200142707    1.77503007355501
H         0.76546216094404   -1.39995974629363    0.36089630634346
H         2.20017039445285   -0.37587855568265    0.16565687719946
H        -0.19119873714481    0.40438193566319   -0.22293857556604
H        -2.16447460604521    2.45968708805376    0.85415205874200
H        -0.84261340758421    2.76608794096851   -0.27616581829816
H        -3.00511725448742    2.53337535037800   -1.46252278578622
H        -1.88154577924485    1.25640487151515   -1.93353018716176
H        -4.14113043205226    0.32082455497352   -1.51022212045415
H        -4.12017458418134    0.98906278828885    0.12441697973577
H        -2.17999819239273   -1.09308784271511   -0.97441131895181
H        -3.49369242864080   -1.40605935612840    0.16379314428869
H        -1.32150964981797   -1.18611206253510    1.35220921129984
H        -2.44056161616665    0.08851736832999    1.83199122807752

