95
CSD_code = CHPFMO | q = 0 | S = 0 | Stoichiometry = C36H44F8MoO4P2 | MND = 6
Mo       -2.95072216851203    2.92195306013948    1.91139403089175
P        -2.76717226539325    0.75252472822343    3.03032720584158
P        -4.69752553196323    3.86333950652519    3.31879696739276
F        -3.63705214203623   -2.21716951464611    4.90760888622396
F        -2.86790039738729   -0.87740672824631    6.40273513709008
F        -6.15315406966154   -1.51297750959298    5.55280974389037
F        -5.38958607063248   -0.16938740056053    7.06897827095486
F        -7.97505031192785    1.54023430344240    5.84958313314602
F        -8.21171787242471    0.47552322082210    3.98039275128693
F        -8.08825994607609    3.88145228032826    4.50487231844042
F        -8.18283174482784    2.81632917644096    2.63357713179661
O        -0.76314318208790    4.39377100056834    3.53175186190721
O        -2.66438148626002    5.36314280758248    0.05934710898060
O        -4.99437374697617    1.94873729704286   -0.19565730656760
O        -0.88296657856781    1.95502018858750   -0.15996322219386
C        -1.57034476888715    3.78023722283909    3.00529313197906
C        -2.85197415416335    4.50980592684487    0.79728190919320
C        -4.29772542381864    2.24164807889646    0.65840903766149
C        -1.61159398412898    2.27121188936689    0.66266081328756
C        -3.18686511071216   -0.60057690935021    1.79033685064763
C        -2.50462561206730   -1.96262794411041    1.90024952131721
C        -2.85984714886702   -2.78086440703338    0.65548512496057
C        -4.36896560746387   -2.95980164994003    0.52538413760113
C        -5.06930849133366   -1.60487880059686    0.49205385386884
C        -4.70245564499307   -0.80689771248241    1.73955048094454
C        -1.13027182437723    0.22990466166916    3.72421243122769
C        -0.76242787866616    1.01464253297308    4.98433185849155
C         0.55136436609245    0.48485318784794    5.55509136587323
C         1.67136628837995    0.61250418380749    4.52724723998663
C         1.29997356093506   -0.11553065933459    3.23906932432903
C        -0.02111925853988    0.41952726496680    2.69091260236614
C        -4.23121088000321    4.47742849090993    5.02018107311317
C        -3.55861171192580    3.36905658855561    5.82381983124831
C        -2.94215340157053    3.94701912703918    7.09472362620670
C        -4.02614653294978    4.60595942569774    7.94220798298220
C        -4.75484274294079    5.67886396262922    7.13871714291338
C        -5.35092334119358    5.09407497881017    5.85737066540051
C        -5.70965661567113    5.25127160167281    2.62864921397560
C        -6.15708318916529    4.90143193605401    1.20871701161745
C        -7.01246055893021    6.02470829065436    0.63072439237752
C        -6.21654806724626    7.32523559023574    0.60765710388344
C        -5.75341771091494    7.68356480706288    2.01554851389309
C        -4.91416310933403    6.55806024080387    2.61843639603037
C        -3.81717874497090    0.18083566242187    4.40081413582043
C        -3.76585875133433   -0.97003451464616    5.40217835152224
C        -5.22390437662843   -0.56825804409429    5.79084062460587
C        -5.08437579906860    0.53064395031507    4.75939879298866
C        -6.03722930554038    1.51053603844928    4.38528364865806
C        -7.53853258825579    1.47884764106742    4.57484907834636
C        -7.55276379408595    2.84782065893072    3.82351603510730
C        -6.03277936474896    2.74167719094105    3.79821949503361
H        -2.86991845970603   -0.14011040342901    0.84204122899268
H        -1.42028458726356   -1.86565415489142    1.95284043626950
H        -2.84822016507994   -2.49785660334276    2.78436695725485
H        -2.47576548607015   -2.27212497760208   -0.23213726588183
H        -2.37472699683364   -3.75669345260233    0.71749234416588
H        -4.59772396683184   -3.51987037109116   -0.38271187253389
H        -4.73924992473578   -3.53471027001802    1.37686182387483
H        -4.76631437708292   -1.05068345826242   -0.39909586408972
H        -6.15090132301029   -1.74210650870403    0.45045746833641
H        -5.22747479994257    0.15440150956577    1.74723790681675
H        -5.02659723022871   -1.36760477530829    2.62041399992867
H        -1.21801916338540   -0.83392750924716    3.98549314020888
H        -1.54575809659366    0.93384403740918    5.73973008704859
H        -0.63830906674872    2.07022391172130    4.73306352727639
H         0.80780113423102    1.04331712970960    6.45689542006353
H         0.42566896590203   -0.56287916015692    5.83640479181338
H         2.59754221058878    0.20233774378084    4.93313360613782
H         1.84056913110071    1.66890087516309    4.30734551265279
H         1.20548209104793   -1.18582143847939    3.43863467811572
H         2.08692496188637    0.01804661950287    2.49476808617734
H         0.08701381710323    1.48815680772534    2.47930324080904
H        -0.26561141849541   -0.08147351069879    1.75107055876011
H        -3.47307211904111    5.24410186607215    4.79567852774486
H        -4.30057322564407    2.61789946709390    6.10604458406447
H        -2.79370916477128    2.87947502589481    5.21409686312419
H        -2.18046770465420    4.68344630082204    6.82880562835162
H        -2.45688860985436    3.15044412085028    7.66132090513342
H        -3.58323801941361    5.04947668359533    8.83533570021897
H        -4.74147104899238    3.84632550189487    8.26442723029820
H        -5.55263257855047    6.11601355245673    7.74129373885988
H        -4.05473686526350    6.47713016987501    6.87990568433361
H        -5.87276844424177    5.88258802898432    5.31495661625657
H        -6.08201628451887    4.32574242378091    6.11916617709428
H        -6.59904590522691    5.37795397350621    3.25916549038271
H        -5.27617993140149    4.76701038378471    0.57491063841634
H        -6.71918658158619    3.96498028772371    1.20213566562415
H        -7.32795597499052    5.75948968944358   -0.37941518126646
H        -7.91045661541903    6.15183074777322    1.23974089806631
H        -6.82916384051205    8.13228737801317    0.20247126415505
H        -5.34607794820818    7.20501455870632   -0.04070837292247
H        -6.62646616765389    7.85965658134051    2.64921184644357
H        -5.16575725860750    8.60317646211009    1.99295631222519
H        -4.61928478878620    6.83989116566389    3.63138629768256
H        -4.00257937868448    6.42476668334368    2.02952685496898

