36
CSD_code = CHXPCO | q = 0 | S = 0 | Stoichiometry = C16H12CoN3O4 | MND = 6
Co       -0.03254936244716    2.15404548764578    1.44759556604235
C        -2.15043277891033    1.28115131863832    1.54847495544872
O        -1.81165353514067    2.52215721998307    1.83681286771722
O        -3.26253493197222    0.81809649386036    1.59868785402123
O        -1.05641520213192    0.63398456022386    1.19424706077358
O         1.61173969692498    1.42866864924894    0.98011037825863
H         1.50797741377892    0.50276973335373    0.74736947650631
N         0.68922879399971    3.72514786936573    1.76382171441254
C         1.77589181868269    6.18260767711705    2.26558012817515
H         2.20682331552319    7.15173474116564    2.46307901776108
N         0.32426733744639    1.82335793909430    3.24984512271103
C         1.12891549856887    4.00252886560138    3.00109756949525
C         1.68574682474264    5.24404672240051    3.28478319873086
H         2.04216114627037    5.47471452299397    4.27543321214747
C         0.91205364743172    2.86708229289149    3.88255909729492
C         0.06115056757058    0.71656786894261    3.93437320362229
H        -0.41139053784797   -0.08334633549363    3.37956459280778
C         1.24145219170950    2.80386417667004    5.23286737547708
H         1.70747991607353    3.64991989107319    5.71221684931746
C         0.36106667357561    0.58826734302842    5.27934260093155
H         0.12569839258191   -0.32817222585773    5.79568733685866
C         0.96166726446366    1.65041635234893    5.94220482645608
H         1.20588140260106    1.57903447319757    6.99098663645906
N        -0.25157522313226    2.80078087187075   -0.29023010835914
C         0.76280515910615    4.62058219330550    0.76689825531327
C         1.31018938291705    5.87791355851052    0.99351785049479
H         1.37361918279753    6.60273332079475    0.19837005441550
C         0.20251360233990    4.06637399654650   -0.45475164203804
C        -0.79354813513961    2.16818074726464   -1.32391178327284
H        -1.14151546422115    1.16126857308382   -1.13493402067698
C         0.10800274531924    4.71686545429921   -1.68104023272154
H         0.47550673156185    5.72529018332472   -1.78386055333123
C        -0.91942136223320    2.75721962669956   -2.56999946625620
H        -1.36978442670500    2.20660256330477   -3.37989463456649
C        -0.46171139617354    4.05536088121348   -2.75328571336180
H        -0.54850634993218    4.54048239228832   -3.71341864706553

