84
CSD_code = CIBBAT | q = 0 | S = 0 | Stoichiometry = C31H48ClOP2Rh | MND = 4
Rh        1.89531056766336    9.96848589343824    4.55909835909047
P         0.33433313152484    8.60111471150910    5.39514788134315
P         3.17299452071193   11.19029802147035    3.18785734406587
Cl        2.33437161195077   11.11465253362961    6.47657891743105
O         1.74574441789847    8.65464282604957    2.82262291217417
C         0.81726135219026    7.64350908031468    2.81857838230594
C        -0.00790862389213    7.51220441235602    3.94669600628113
C        -0.99850696098907    6.53932573849187    3.93204529738239
H        -1.63700852780813    6.41531562125933    4.78866766405410
C        -1.17738688956371    5.72724183336368    2.82991995920666
H        -1.96636385890399    4.99033405512754    2.82173470773660
C        -0.31831939403626    5.82927343857572    1.75190837983793
H        -0.44678335806719    5.15419695901821    0.92270669760103
C         0.70418082286812    6.76662421538851    1.73740662961583
C         1.77566442398684    6.78615098819579    0.66659421039436
C         2.28451835769386    8.20439700156956    0.51205074218422
C         2.80905849385330    8.68450156647582   -0.67876898541687
H         2.76343710912961    8.08485326468751   -1.57214642209740
C         3.40847854194452    9.92864197856997   -0.74493362943477
H         3.80331291529248   10.28729479215690   -1.68357712566929
C         3.53386621391937   10.69186297320697    0.39808828032783
H         4.03886129120975   11.64123543906583    0.34777531345606
C         3.00870994213357   10.25688153431197    1.60737530552739
C         2.33887928231154    9.02490677656747    1.64110223986803
C         2.95514602411135    5.94037178216947    1.19596152193265
H         3.77284148281197    5.94726170037390    0.47811822115956
H         2.63616792590387    4.91282020423396    1.35826330467625
H         3.32393648585413    6.33809777483885    2.13986940457779
C         1.29594757652933    6.18660424381626   -0.65623763819242
H         0.46307914697844    6.75761804281819   -1.06083754096368
H         0.98515038666247    5.15533042973569   -0.51638998822590
H         2.10339364711268    6.17271485142858   -1.38255455972101
C        -1.33441576551678    9.43676033223207    5.73336581422388
C        -1.11472736649829   10.45353284698357    6.85585139106883
H        -1.90773866077296   11.20043747839607    6.83867748168504
H        -0.16100506842031   10.96530249408343    6.73367277634515
H        -1.12524092599088    9.97673813608666    7.83167546722526
C        -2.54912150865579    8.57751989804362    6.07052590304191
H        -3.37002107369942    9.23489880474295    6.35883812529171
H        -2.35011384830296    7.91432138575746    6.90896789298064
H        -2.88396830413553    7.99343188574549    5.21755059946513
C        -1.57934460656734   10.20359421707014    4.42855177382540
H        -1.76515578575059    9.52197066142248    3.59763466084057
H        -0.69640541341772   10.81237358702721    4.19627544490825
H        -2.43637305017700   10.86771528085913    4.52815870896372
C         0.87397846428214    7.34711686611032    6.70767984734408
C         0.97782260488478    8.09291702325241    8.03695818885657
H        -0.00231222527887    8.22331801338615    8.48967144984239
H         1.43304866843161    9.07165510096032    7.88811539402226
H         1.59776490877560    7.53010488385958    8.73408246848624
C         0.05659894616926    6.07111969193262    6.88234050400692
H         0.49340727027226    5.48647254662516    7.69251390306010
H         0.07547981920510    5.45976319215323    5.98283745122942
H        -0.97619394709897    6.28139562013262    7.14824802717580
C         2.28425156016442    6.97764797652341    6.23160032293112
H         2.88420368118565    7.88608636663740    6.11397856217633
H         2.24625252068781    6.45233012435357    5.27553866410928
H         2.77829210798062    6.33279987879673    6.95672585888473
C         2.58571826542628   12.93918024231423    2.74250828825889
C         2.18740150843016   13.57554396642706    4.07676744769354
H         1.71378482247741   14.54218799505603    3.90894531716826
H         3.05123458463608   13.72241123847197    4.71985988661943
H         1.48578937719820   12.93227467320822    4.60873345674379
C         3.54607543435552   13.87733901761263    2.01836360137834
H         3.05092106518270   14.83798167135863    1.87196925007943
H         3.83173923569857   13.50718878108230    1.03749352597836
H         4.44249859681918   14.05572660177902    2.60663762267408
C         1.31487739835439   12.73247989982770    1.91274387382998
H         0.68261818331138   11.97710647665122    2.38693234027470
H         1.54255744441386   12.40517112463918    0.89984133102004
H         0.74794304051905   13.66052266573106    1.85499035854500
C         5.03799453661216   11.09065658084148    3.49672843893406
C         5.34967567647874   12.00119378665803    4.68370042222702
H         4.61756639564257   11.84886890053006    5.47648388929815
H         5.33985419911788   13.04968242817922    4.39406110854799
H         6.33726781172068   11.77219882633366    5.08295609553874
C         5.97772157628344   11.38517896993650    2.33168980269642
H         7.00628372737041   11.28885314810777    2.68055670093575
H         5.85158905843074   12.39321115546950    1.94827957830744
H         5.83393248706962   10.67541918821177    1.51962949946875
C         5.22405404092644    9.63095047199459    3.92946880618298
H         5.01313470503928    8.95106818136838    3.10220248034066
H         4.54732769982482    9.40039460905561    4.75995039906596
H         6.24590806849980    9.45692042145498    4.26314800365271

