77
CSD_code = CIBGUQ | q = 0 | S = 0 | Stoichiometry = C26H32HgN10O6S2 | MND = 4
Hg       -1.58672577133426    1.53622321870396    4.69876856352468
S        -3.99086691685455   -0.59029611681924    3.32709874718171
O        -3.57783978096929   -1.19651135047857    2.08590153240024
O        -3.79972774537088   -1.40176285234514    4.50308088075337
N        -3.18043996597245    0.81139020545413    3.60125903378332
N        -4.36603791311971    1.88335547106467    1.91040942112308
N        -2.66136320650755    2.95761730472095    3.18368259947954
N        -9.68140123216309    1.04394227876681    3.07934088452939
H       -10.09118319622497    1.41974200716798    3.91799684215670
H       -10.30258153456636    0.50436110043109    2.50009938054438
C        -3.42720456834086    1.87856502906647    2.86258299057026
C        -4.53331140721581    3.00205203479512    1.23893229396931
H        -5.30112064553641    2.96703692063143    0.47580266473412
C        -3.79161289731972    4.15146576186332    1.47957034727109
H        -3.93964667951175    5.05702619351639    0.91638547085560
C        -2.84767168831773    4.06553027332840    2.49158615535187
H        -2.22170539539327    4.90769907634965    2.76107229603928
C        -5.70729868210611   -0.12291668842099    3.23696414932866
C        -6.51124256135101   -0.58284608661495    2.21271673597206
H        -6.07431211513396   -1.21858172251758    1.46006898515251
C        -7.84105847390964   -0.21580598117382    2.17153690537030
H        -8.48056366068644   -0.56741698496983    1.37485460344929
C        -8.37428927339916    0.62217079991119    3.15583836706044
C        -7.54035373561610    1.08128155346481    4.18103068623568
H        -7.94643274262262    1.73529163826409    4.93935276830512
C        -6.21214140241276    0.70931509565482    4.21821237580813
H        -5.54820670005075    1.06328397108024    4.99134094745559
O        -0.16646340743736    0.92186468557778    2.83687970840931
N         0.47354674454846   -1.08591101456770    2.00319705344773
C        -0.42129574589195   -0.22970711824120    2.46888266553781
H        -1.44939933793593   -0.61189790078667    2.43287869480282
C         1.88307257391777   -0.77880192656203    2.03996877583580
H         1.99576627295780    0.30237967354029    2.08096495391962
H         2.36521951969605   -1.16710801594457    1.14165742264337
H         2.33954854377174   -1.22252369646572    2.92765569816604
C         0.11978700042098   -2.46393602376619    1.77767297261303
H         0.45691212484893   -3.07090059244491    2.62104591330090
H         0.59202462506033   -2.81960664011021    0.85985057579295
H        -0.96121636374596   -2.55269398375032    1.69043874611036
S         0.81739210624397   -0.59029284321759    6.07043591812969
O         0.40437767009021   -1.19655621649125    7.31161017076917
O         0.62622972852026   -1.40170045052255    4.89442113738561
N         0.00697821922871    0.81140618307302    5.79631684295405
N         1.19247521369219    1.88334594446439    7.48724974262887
N        -0.51195202619027    2.95769582044973    6.21372606399284
N         6.50795254616915    1.04388313470364    6.31818833959189
H         6.91773528139312    1.41968551542874    5.47953363619723
H         7.12913072797411    0.50430220845822    6.89743411882748
C         0.25371928333473    1.87857944700995    6.53499915227543
C         1.35965412369222    3.00200594602529    8.15880880323691
H         2.12773050299768    2.96711635905243    8.92167739000056
C         0.61818203114855    4.15151427397401    7.91793916995590
H         0.76617048560959    5.05707212637846    8.48114379456021
C        -0.32548874760890    4.06568170234016    6.90566321089308
H        -0.95185371260986    4.90767418721419    6.63654492501286
C         2.53383167309222   -0.12293121521612    6.16057417191824
C         3.33777029105422   -0.58285777105604    7.18482882512333
H         2.90083401754455   -1.21859274423648    7.93747295902997
C         4.66758884526232   -0.21582474839677    7.22600972580030
H         5.30709269981271   -0.56743375407238    8.02269323954324
C         5.20083199117623    0.62213605998394    6.24170054559122
C         4.36689723042847    1.08125918392391    5.21651266565401
H         4.77298080285685    1.73526317213846    4.45818837096330
C         3.03868306615312    0.70930063579670    5.17932788421906
H         2.37475397907414    1.06327929406352    4.40619911241355
O        -3.00698382826136    0.92186289875801    6.56069765231087
N        -3.64695914620034   -1.08594760733320    7.39431946389341
C        -2.75215369093082   -0.22977569323175    6.92850584403900
H        -1.72402848553317   -0.61182439498359    6.96480692635393
C        -5.05648869698227   -0.77884282537010    7.35765937538117
H        -5.16918418017016    0.30233723438737    7.31652802944766
H        -5.53855901813826   -1.16703426461551    8.25606633911852
H        -5.51303006386939   -1.22268881101806    6.47006408094625
C        -3.29316074057294   -2.46394977571358    7.61991050619344
H        -3.63022643990123   -3.07094503452364    6.77653428679009
H        -3.76542998007144   -2.81960696577284    8.53772245485390
H        -2.21215641771930   -2.55266580920679    7.70720531497810

