59
CSD_code = CIBHAX | q = 0 | S = 0 | Stoichiometry = C22H22HgN8O4S2 | MND = 2
Hg       -0.41943403446713    2.74980921938860    3.16438929310613
S         2.21216367251632    1.92025637187902    2.64273285973379
O         3.16917129567231    2.76851855114213    2.00077930982486
O         1.07910025525867    1.48640861725628    1.82147737985597
N         1.46780754583815    2.62915051364383    3.91476301364400
N         3.09537096956729    4.16983895856254    4.55335979518586
N         0.79185705295796    4.72801944937256    4.39248141668749
N         4.67837683420275   -2.84828423767579    5.10992862756968
H         5.67018051067909   -2.84006934118455    5.27689225899037
H         4.12524106626514   -3.36087887567313    5.77562516848521
C         1.83065375737526    3.87092201340987    4.29918463570515
C         3.37053604395486    5.41229698320030    4.92095578895592
C         2.36312215147715    6.36903005440137    5.05727763010023
H         2.58519461659269    7.37862041931357    5.36230952582833
C         1.07042466834929    5.96400348731781    4.77840398709667
H         0.22944311751251    6.64243968519609    4.85265911737833
C         2.97935970380772    0.47670343054574    3.32415822800505
C         4.35068215697618    0.30851897329479    3.28046807028070
H         4.94553886401421    1.04993479976107    2.77225084727079
C         4.92114905686177   -0.79068994902443    3.88860062638302
H         5.99122364898174   -0.93478058471467    3.86204465766127
C         4.12030897316276   -1.72753272212544    4.55196626265775
C         2.73341563745771   -1.53262387029096    4.58779732415895
H         2.11308885239428   -2.25075862641485    5.10346044285095
C         2.16697289201869   -0.43308658024947    3.97951541608639
H         1.10102444002710   -0.25519611037419    4.01054536116859
C         4.80375597518062    5.72799199628671    5.19369423788519
H         5.10454041851077    6.62086115744262    4.64986172956412
H         5.41929628845925    4.88687532508528    4.89131412999132
H         4.94624612963799    5.91443113436493    6.25735556306570
S        -3.05102616422348    1.92024463229973    3.68605545995322
O        -4.00802639589998    2.76850855443605    4.32801772599690
O        -1.91795798085511    1.48639165127640    4.50730131165371
N        -2.30667809054927    2.62914085954837    2.41402167195636
N        -3.93424615113704    4.16982971801747    1.77543769571928
N        -1.63073298111209    4.72801379715539    1.93631271647525
N        -5.51726990479550   -2.84828134217109    1.21886189713779
H        -6.50907298986133   -2.84005889067248    1.05189623190097
H        -4.96413622719018   -3.36087852222032    0.55316544780178
C        -2.66952774679833    3.87091372610442    2.02960763537261
C        -4.20941479837794    5.41228975142231    1.40785108157951
C        -3.20200339600652    6.36902603386054    1.27153359123525
H        -3.42407887447106    7.37861833981565    0.96651051717470
C        -1.90930417259249    5.96400012350233    1.55039990173373
H        -1.06832423418505    6.64243840195604    1.47614663255556
C        -3.81823132658837    0.47669544034938    3.00463263628594
C        -5.18955501515569    0.30851870413273    3.04832533258882
H        -5.78440710645488    1.04993896241682    3.55654150330718
C        -5.76002871129236   -0.79068716934904    2.44019271782552
H        -6.83010453926282   -0.93476991856389    2.46674804077302
C        -4.95919448935505   -1.72753427843744    1.77682620823135
C        -3.57230041014366   -1.53263275806783    1.74099309661589
H        -2.95197901900524   -2.25076848576263    1.22532489048146
C        -3.00585068609850   -0.43309867889195    2.34927371864414
H        -1.93990142442355   -0.25521399968262    2.31824263363864
C        -5.64263597815211    5.72798361843943    1.13511809440491
H        -5.94341992642101    6.62085104873443    1.67895369491930
H        -6.25817437004160    4.88686530887502    1.43749760786759
H        -5.78512945076370    5.91442512833775    0.07145760097517

