65
CSD_code = CIBKOO | q = 0 | S = 0 | Stoichiometry = C28H30N2O4Ti | MND = 6
Ti        3.08269422090737    6.25310338960871    2.53592208593204
O         2.11791058211117    7.64749215596565    3.03505319154883
O         4.65479675228365    7.06036826341887    2.61766559931256
O         2.81177300640702    6.08906310218425    0.74616024441130
O         3.06096641459544    5.31114571047059    4.08981560016835
N         1.06448602661209    5.15139463980200    2.48714019901185
N         4.22712146675959    4.30747496310580    1.92831036952758
C         1.13802291243548    8.31838524075421    2.45364073860160
C         1.38792478412180    9.09724029820248    1.30305348557241
C         0.34309415782921    9.77154227762591    0.69609880162185
H         0.53979815287376   10.36378741488229   -0.18733176567583
C        -0.94407602433775    9.70740760768356    1.20650943547424
H        -1.74977958084858   10.23539997388305    0.71797189076463
C        -0.16097257484486    8.30170432235413    3.00180714970075
C        -1.18311066858082    8.98615746927029    2.36155390665530
H        -2.17787719871710    8.95789755377496    2.78551619472154
C        -0.41551589448954    7.57467110307947    4.29402591255700
H        -0.75281662241317    8.27543030293400    5.05813908452573
H         0.50720887808571    7.10319342367778    4.63452411065618
H        -1.18790989626543    6.81383970408528    4.17367185492662
C         2.79187409963255    9.17417857566620    0.77934171937972
H         2.93429236798494   10.07145638271249    0.17981143069417
H         3.00200612884469    8.29587569325075    0.16391304085762
H         3.49963313200785    9.16699903761076    1.61413198746079
C         5.89489615189613    6.65555082279637    2.83817385334625
C         6.37954803440131    6.54908607001837    4.16024309424653
C         7.66163738206843    6.07918181535468    4.38213870538329
H         8.02359250772124    5.99025343162930    5.39757037484620
C         8.48739080153589    5.72810192984388    3.32572352728327
H         9.48356658264711    5.35569136829651    3.51460899820244
C         8.03627149457990    5.88412712116301    2.02792518830138
H         8.68648356396734    5.64288560074132    1.19770264829429
C         6.75875472426127    6.35482936931375    1.76575010092680
C         6.29274509508247    6.58074770018959    0.35436981370028
H         5.20834543195503    6.70137749006790    0.34213213247320
H         6.58260057262718    5.75225953721957   -0.29134010743795
H         6.74210093348129    7.49161791498282   -0.04404427384571
C         5.47624097964560    6.97422474704817    5.27899598323177
H         5.91269908942844    6.73692432564722    6.24694450868099
H         4.50487826470843    6.48359714835813    5.17280106534849
H         5.30225478175634    8.05064021473246    5.22200921448103
C         3.04868658653917    4.97941935403410   -0.01902066108077
H         3.38256196341864    5.26654450332990   -1.03624070119475
H         2.12697910929766    4.36480262909834   -0.14363619773768
C         4.10540516055053    4.10599417961942    0.62194159871073
C         4.91460834739648    3.20909179265819   -0.07027368406427
H         4.78013195669969    3.06134461607391   -1.13116397543655
C         5.90267790455697    2.53748413228431    0.62781570873355
H         6.56210603314815    1.84995084169409    0.11824040828070
C         6.04098933323401    2.77129592759549    1.98887679455778
H         6.81206652339464    2.28174123434695    2.56147257334442
C         5.17010428348261    3.65942519124013    2.59917756090530
H         5.22598414825853    3.87313429596544    3.65954099166685
C         2.14207610005656    4.37051051143886    4.45867674760067
H         1.83563444644125    4.51517766119313    5.51505343944330
H         2.56501257666540    3.34211099397368    4.38478807854528
C         0.90622399620778    4.42971505294046    3.58927101678062
C        -0.30700443448529    3.82523005929297    3.91243859762072
H        -0.39802019400477    3.23415083460347    4.81121877788148
C        -1.38592678001732    4.01732106007990    3.06851931777600
H        -2.34447961718784    3.57291545689651    3.29458612218289
C        -1.22162651763156    4.80405086143184    1.93557913548316
H        -2.04655075836639    4.99556142126484    1.26795426377920
C         0.02749917155527    5.34668845162371    1.68246955565401
H         0.21440964603855    5.96653372390290    0.81326343469317

