44
CSD_code = CIBKIK | q = 0 | S = 0 | Stoichiometry = C18H14F4MnN3O3S | MND = 6
Mn        6.86041616245510    4.26361930646590    2.53118679785643
N         8.53807901293568    5.05622295513129    3.08286200169865
N         5.89633524564138    5.88862183687116    2.95892783136855
N         6.63464312038766    3.56414867592788    4.23292303420843
O         7.76866463492739    2.79368614212553    1.82178279167952
O         5.20379856494954    3.54388592628530    1.96050577414928
O         6.95460360879962    4.96078378809921    0.32027442050732
S         5.45382165748451    2.12401626759782    6.26498986609179
C        10.01951720119729    3.59765412090960    1.83234532511239
C         8.98219818238077    2.68745973058992    1.43513246350588
C         9.38150013144389    1.61854351836522    0.57750841004619
C        10.66904203571771    1.43023071360308    0.15633024721827
H        10.92489789284856    0.60788300532731   -0.49162026891652
C        11.64665126403051    2.32707183057944    0.59666033621877
C        11.34618128842511    3.38171871737371    1.41365908104226
H        12.12752457237852    4.05433611286524    1.73150921104475
C         9.72592621618520    4.67742018381926    2.70855730924361
H        10.59462696490161    5.19540306850744    3.12021525426404
C         8.48585406672173    6.03477754256557    4.15787526482355
H         9.49669791052500    6.28145605524300    4.50626487489401
H         7.94849945445573    5.55302810287639    4.98400451477132
C         7.76034094032282    7.33675955881089    3.78489037050372
H         8.46694558353614    8.04235155357648    3.34531153958188
H         7.37397973676712    7.77676249884333    4.70458195627051
C         6.61232119775271    7.14033311184503    2.78403318136521
H         5.92538138568748    7.99291449350925    2.86177472174804
H         7.02441054901122    7.12931057735852    1.76832630310157
C         4.65173013200616    5.95689409371719    3.31946238453803
H         4.23166021439829    6.92804793043589    3.59171500779056
C         3.73957171580041    4.86377520592091    3.30053966439118
C         4.07507165050470    3.69223283060874    2.54425016254431
C         3.04567982818401    2.71724226910688    2.40925149188350
C         1.82577715034203    2.82664669420879    3.01977095067454
H         1.08817657632379    2.04628130834005    2.92433775524194
C         1.55822996482853    3.97544523974243    3.76804160961339
C         2.47197314232398    4.98675856553809    3.89418890890403
H         2.22502948577560    5.86808611640070    4.46508146065659
C         6.11261750106932    2.90095148311611    5.06208313890810
F         8.42498282458405    0.77557459751492    0.14576345200838
F        12.91814692905144    2.14015952079359    0.18714021939200
F         3.30840055534871    1.62885773755424    1.66580083392199
F         0.35119630972450    4.09045226677757    4.35538434881520
H         7.70368575064840    4.52648192524722   -0.10557541459715
H         6.16661168721861    4.51381281990347   -0.01974858808406

