47
CSD_code = CIBLIK | q = 0 | S = 0 | Stoichiometry = C14H18N8O6Zn | MND = 4
Zn        4.45648720044202    1.83867072947542    6.28022794035202
N         3.25747447587326    2.72988006845093    5.11583230000627
C         2.57450725428163    4.04129859507612    3.45353758591627
O         3.48296547319395    0.06095184432239    7.08531491316350
C         2.01276393554418    3.19210395525034    5.29217480686891
H         1.42787273372591    2.94420710746865    6.15629640756675
N         2.63885794592375    4.72698548244385    2.28119906857332
N         1.55285216663643    3.97376035954718    4.32611117291198
O         3.89464464925075    5.31027636218070    0.49450057163425
C         3.64711164427785    3.27729588845858    3.91204501412709
O         5.84335992625217    2.48909883461414    3.49158080326484
N         4.84706162053115    3.92870765637443    2.02414213512944
C         4.85626303714415    3.17344045461089    3.18437703198034
C         3.79130777260557    4.69933650365372    1.53628053553496
C         1.51636361705761    5.50795465038710    1.80703067377125
H         1.81616988823103    6.54894930021118    1.68339603930618
H         0.72463012425914    5.42194904708039    2.54599973105086
H         1.18264747413187    5.12825156733083    0.84076087763899
C         6.04318769795914    3.94088259648902    1.19888485044157
H         6.81942466043492    3.39608341747483    1.73024487936758
H         6.34994310321946    4.97042897586642    1.01957802335173
H         5.83763355897339    3.46796886768117    0.23848383565615
H         4.07132003784477   -0.49452615059359    7.60615072440425
H         2.87887325806498    0.48975000747419    7.70459135565402
N         6.02315619039587    2.73267863499502    6.95389471239979
C         6.68483233982152    4.07635352216377    8.60985741909292
O         5.43553845224746    0.44289514694828    5.05894634213973
C         7.27922418241213    3.16708993828279    6.80060285828338
H         7.88576323114661    2.89090133144424    5.96084578127314
N         6.53296626957486    4.75900094602735    9.77878068146503
N         7.72668458791740    3.97111916831600    7.76543723631460
O         5.17013717576873    5.30412535117713   11.49769214547465
C         5.62648737776904    3.31886554884564    8.12420932191913
O         3.45721255284071    2.50121885259300    8.29523121520359
N         4.29921046447301    3.93181500285212    9.91353536314768
C         4.38485358241166    3.20718045827753    8.75090652628695
C         5.33729186064856    4.70652541231730   10.45702304192802
C         7.61068731841613    5.55255492434901   10.33154433720138
H         7.30328078889341    6.59582325720386   10.40940369294852
H         8.46146594564175    5.45440106769736    9.66293128894628
H         7.86233711858643    5.19210931517264   11.32943653430030
C         3.05441367757602    3.93104261516169   10.66020095942609
H         2.29717974605252    3.45972508067064   10.03813121851709
H         2.77377169690009    4.95593980800342   10.89846253072739
H         3.17500528375163    3.37893564339479   11.59293872215361
H         4.91643909621881   -0.17796381431817    4.54000368531057
H         5.76393780469308    1.12955666713877    4.41904310784204

