59
CSD_code = CIBLIL | q = 0 | S = 0 | Stoichiometry = C30H20N6O2Zn | MND = 6
Zn        6.63444884448567    1.89268700549215    4.69145146891493
O         6.07722669805895   -1.64312034216690    6.67143854443516
N         6.58754291043607    0.04412880595444    3.59842255530846
N         6.34184048743829    0.60289332048797    6.16588877216186
N         6.54356173525028    3.24156707344700    6.32706285211002
C         6.72178817500953   -0.19129265775484    2.30306832701351
H         6.86648457261907    0.67871220039066    1.67673941711063
C         6.68196860953697   -1.46622528797972    1.76171233894869
H         6.79608177814953   -1.61015242300011    0.69873677367980
C         6.49295591964267   -2.54335587128999    2.61583591814906
H         6.45634764868112   -3.55213623936414    2.23107194703888
C         6.35269285592777   -2.29723189141343    3.96897167766897
H         6.20286621815268   -3.08573634978482    4.69016550524624
C         6.40615228725696   -0.98320834649745    4.42437042034316
C         6.25539344261158   -0.70448893733553    5.90035190979681
C         6.24977379134229    1.14101858234150    7.41851535820141
C         6.06599131730521    0.44998286398952    8.60787562678639
H         5.98226550455138   -0.62408663477118    8.57958864902981
C         5.98934348712385    1.12234771178628    9.82847438087755
H         5.84650004328363    0.54389605912518   10.72997899490556
C         6.08997176346038    2.48762784242250    9.90479263501311
H         6.02837990651221    3.00161317036341   10.85260023548926
C         6.27785278337425    3.23838866039121    8.72964981395807
C         6.39166626426171    4.64323996126430    8.71812741954417
H         6.33168600673858    5.18411321739776    9.65233558756747
C         6.57584125649661    5.29858438583306    7.52972041275095
H         6.66641445195383    6.37287856527635    7.48791879646242
C         6.64736536363665    4.54745741161415    6.34903665631941
H         6.79377144836770    5.03385610547976    5.39397635774818
C         6.36059839819654    2.56797733793478    7.47894073397494
O         5.78822004492925    4.39008980251518    1.56517831606734
N         4.59444030196782    2.30716301407091    4.17049601721619
N         6.89231953238558    3.13201835648106    3.16788433661059
N         8.75579972830425    1.94946462311656    4.63597663459487
C         3.46575284357643    1.88093543287645    4.71430995809987
H         3.57043603330477    1.19572482138973    5.54477208268807
C         2.21663931344142    2.27554377738380    4.26253154056108
H         1.32288658841703    1.90222962183821    4.73739762734914
C         2.14662507645454    3.15578693537998    3.19211401448626
H         1.19101489107929    3.48599999422953    2.81160971415968
C         3.32581083298548    3.60036412716984    2.62371367261119
H         3.34659048881892    4.28423522425795    1.78931968013477
C         4.53621108235140    3.15200575146428    3.14411684688938
C         5.82922267901945    3.63306697187340    2.53094251993451
C         8.18884060358860    3.39791429276890    2.82784495855342
C         8.62595921587099    4.21939627308711    1.79838021170562
H         7.89538463622950    4.71646268379628    1.18142954000732
C         9.98717860766303    4.40792448261053    1.55443861540040
H        10.28250546353167    5.05590904487293    0.74165612910068
C        10.94628489323424    3.79371100364845    2.31780744153840
H        11.99792335845408    3.94414836039793    2.12351124900278
C        10.55921835749420    2.95098148042755    3.37607638854558
C        11.47834299030264    2.28341821931653    4.21050401754556
H        12.53761067878747    2.41637587974379    4.03974122636569
C        11.01801098461046    1.48110089301392    5.22049228871776
H        11.69594226667256    0.95784968824896    5.87673892995927
C         9.63464971037233    1.34355030732798    5.39563002259755
H         9.23833160113074    0.71630589508720    6.18279097501320
C         9.17667322516330    2.74768774197127    3.63617495798913

