93
CSD_code = CIBLAB | q = 0 | S = 0 | Stoichiometry = C48H38N2O4Ti | MND = 6
Ti       10.74952749198029    7.60834273861281    9.68721347823532
O        10.37711942360802    8.82541243591431   10.92652879021899
N         9.80502144039419    6.07383428072873   11.13610747021058
C        14.02278957143720    8.30832289695474    8.69660405638236
C         9.20057055070580    9.15112260968514   11.41299248955853
O        12.15107704316743    6.76422697057172   10.41377367816740
C         8.53487559731113    5.82792491676119   11.43202708721039
H         7.80405011887527    6.44206049336456   10.91973528847307
C        11.80120755556993    7.33978478277472    5.77265410528395
C        10.70921899562225    8.20691613880454    5.77159893543650
H        10.71862173116810    9.08048990687959    6.40560280880776
C         8.60696079836547    6.66699292055879    8.06277966228550
H         8.32462790093780    7.19029652883264    7.12630717694182
H         7.68759180883268    6.16619446906620    8.43987295460031
C         9.24995516856631    7.08611036336594   14.49932697431632
H         8.18925745233878    6.88151345979556   14.52894999162046
C        11.12189840569676    8.26532695617951   13.58412705876339
H        11.53160856162866    9.00378702590723   12.91191381774803
C        13.94246027762393    8.89190168804231   10.04589502258605
O        11.66572856944427    8.43699973369159    8.41249327022311
O         9.10829101016750    7.54332885028068    8.97623574769512
C         8.15596431637157    4.86003579878575   12.34574629881235
H         7.11278284540420    4.68681957017501   12.55864024602971
N        10.79362639898686    5.75178430128283    8.30416848504207
C        10.75740714624335    5.39087125962546   11.75874922781639
C        12.98010180509591    7.58563256948585    6.61857007296947
C        12.15981726562406    5.79564593628793   11.37063940461334
H        12.67537961076517    6.14965709498007   12.28685152307940
H        12.70393722183722    4.88795097243751   11.02656752198555
C         9.61738883467198    5.60194622954031    7.70821383252009
C         8.25821692539840    9.85969475724784   10.62344597940175
C         9.74610253813353    8.03878525412641   13.60670961720778
C         7.57221947446541    9.14811616349956   13.21919124720303
H         7.31591566786288    8.90573945203062   14.24065691150027
C        15.38135102855796    7.45327195813761    6.89319875806915
H        16.35389493275854    7.21317593671212    6.48979155358103
C         8.60536476312996   10.28242675055906    9.25658693700193
C        11.96623180932510    7.56215509476353   14.42433045240307
H        13.02758871453145    7.76363081846187   14.39832603121395
C        14.69067601285850    8.36505149119648   11.09759857297867
H        15.28329614072890    7.47564793372249   10.93549550444800
C        14.24551423839251    7.27167404340191    6.12921315265186
H        14.33904303116936    6.90350528883645    5.11743472515026
C        11.76867482855399    4.89301376207125    8.03392942521736
H        12.71632778881449    5.08778292687962    8.52155814434325
C         9.14721879166442    4.12445311380347   12.98302635632719
H         8.88841079943398    3.35970003831540   13.70066723396904
C        11.76017849996492    6.22689753699828    4.92983984767170
H        12.58801183207626    5.53224884883269    4.92061266769520
C         8.82845366941485    8.79067910212678   12.73583274086681
C        11.60120236109544    3.82079940850566    7.17499374333955
H        12.41626207908710    3.14106479017970    6.98221741705639
C         7.01104682581190   10.17910485881821   11.14223246654887
H         6.31544324060005   10.73576130088404   10.52988137843590
C        10.46982178038870    4.39714032068768   12.69266976006222
H        11.27190735883406    3.86278289729161   13.17798736084937
C        13.17610477825064   10.03340995523648   10.27633620623408
H        12.64051863801735   10.47850833073474    9.44944714817352
C        12.84600083556077    8.12691260686218    7.92497068873457
C        11.46130105983891    6.61654076932535   15.30085359340760
H        12.12281787669406    6.06912695185901   15.95708779548290
C         9.83413532014434   10.88655732463106    8.99405633152137
H        10.52647012425276   11.03924950483080    9.81022647555720
C         9.21240860281858   11.21783834426268    6.69762043188653
H         9.44597260203330   11.58118002928812    5.70667082213038
C         9.35783790245073    4.55249013208512    6.82866091402084
H         8.38806936638087    4.46382366351423    6.36372877298345
C         7.68590132602712   10.15719029999198    8.21613206844859
H         6.73242127584732    9.68342097065520    8.40314574849172
C        13.15861038906414   10.62833789779499   11.52575002097982
H        12.56967930656706   11.52046767372414   11.69228140377041
C        10.09680294726460    6.38315682850227   15.33439739911440
H         9.69036624719784    5.64907064466203   16.01632811821671
C        13.90692146939825   10.09648010478042   12.56353020936906
H        13.89522150199754   10.56384944916652   13.53821029288211
C        15.26128867703931    7.96126673404918    8.17473317830827
H        16.14660379328140    8.12468779259031    8.77329545805154
C         6.66459968493325    9.83406063667751   12.43674343554382
H         5.69984612298312   10.11001465365858   12.83584518967128
C        10.13389907701182   11.34808691704695    7.72417928147391
H        11.08571478291131   11.82543560624980    7.53264220470476
C        14.67198412072538    8.96260617989551   12.34371528314624
H        15.26492538464797    8.54751769549667   13.14794160096607
C        10.66720710051232    5.98685664348686    4.11974008812063
H        10.65660621608519    5.11768183005218    3.47664185034296
C         7.98788245539476   10.62084819109849    6.94963433436630
H         7.26110849326529   10.52387617359570    6.15402288530411
C        10.36517429466982    3.64458836048597    6.56601137449183
H        10.19763875131344    2.81748310488560    5.89169903090902
C         9.61845271837404    7.96548506664715    4.95578998087588
H         8.78891230281287    8.65814421021768    4.96147217458706
C         9.58850907651038    6.85513708905858    4.12890859930859
H         8.73524532620620    6.66887388542290    3.49233514562116

