57
CSD_code = CIBLUV | q = 0 | S = 0 | Stoichiometry = C24H24N4O4Ti | MND = 6
C         7.30679196180749    2.69986482488464    8.94276672063970
Ti        3.14290202954851    3.20766472264787    6.43842215461839
O         1.76981800647117    3.60112000258171    5.38356630389056
O         3.64366141470390    4.89131689356292    6.84731254641904
N         1.27059920537445    8.35319210590678    2.59037460672886
N         4.69808122190167    2.89589381839249    8.04471704202555
C         1.38147645972254    7.13063160882367    3.25434327668840
C         2.58715530985144    6.42873568437842    3.25454896371375
C         2.72697352351809    5.25704205402109    3.96900311338375
C         1.65643056333853    4.74111552357730    4.71441213622583
C         0.44668725977555    5.44641467788013    4.70546994399040
C         0.31501768651972    6.62028245252917    3.98939049632277
C         5.15553938540440    1.75350438810093    8.54140039951456
C         6.45416486611837    1.60446692899699    8.99913191582909
C         4.90106903918225    5.15725358843546    7.30581234957067
C         5.51611377038281    3.94050079748748    7.96328765737466
C         6.83251178211354    3.88803390906685    8.41823509780369
H         6.79409272150777    0.65729987327516    9.38752050044710
H        -0.38731152792682    5.05416944634442    5.27348705559600
H         0.32786844430506    8.60956673500683    2.33818795958189
H         4.88913840219168    5.99138720438884    8.04161634825074
H         5.57015442536412    5.46612530002769    6.47487514787418
H        -0.62615311247703    7.15357013518527    3.99763743948875
H         3.66329613461499    4.70439229386605    3.96757336842195
H         3.41996209831890    6.81630966689772    2.68293002500906
H         8.32592802536288    2.62225310251304    9.29357553838602
H         1.92591944004072    8.47699082108568    1.83319709809610
H         7.46635176147875    4.75911827661826    8.34469673703655
H         4.44670409832529    0.93390607387660    8.55799394345828
C        -1.02096330528124    3.71544370709071    8.94284584412672
O         4.51598229164994    2.81421903706579    5.38356025380562
O         2.64212520967766    1.52401473150897    6.84728810856051
N         5.01521074705929   -1.93784503012802    2.59036410056867
N         1.58770212525330    3.51945679261136    8.04468212125148
C         4.90432881788648   -0.71528627335481    3.25433596705214
C         3.69864730331240   -0.01339531272283    3.25454396103916
C         3.55882639789632    1.15829704584369    3.96899901157647
C         4.62937108836856    1.67422824687085    4.71440149837640
C         5.83911565736624    0.96893159850015    4.70546141150767
C         5.97078730315803   -0.20493521151631    3.98938251819787
C         1.13018983189315    4.66189305869225    8.54122550139714
C        -0.16839242119743    4.81089044001777    8.99906946156700
C         1.38471791471303    1.25808688466589    7.30579301551159
C         0.76970251715445    2.47481811622694    7.96333267783531
C        -0.54668667236847    2.52727865992745    8.41830314534972
H        -0.50827899267315    5.75801555720291    9.38757505942181
H         6.67311302631444    1.36118035257999    5.27347795717968
H         5.95794369894644   -2.19421101202737    2.33817632446102
H         1.39666109443188    0.42396157476135    8.04160304529369
H         0.71562212852224    0.94920177461907    6.47486372876548
H         6.91196052774339   -0.73821784239316    3.99762425023314
H         2.62250128792137    1.71094242958900    3.96757362198766
H         2.86584143915451   -0.40097104177885    2.68292501235759
H        -2.04014135175821    3.79309349724361    9.29354835449714
H         4.35989308165672   -2.06164032227062    1.83318364841780
H        -1.18056914475001    1.65623330792026    8.34464493511698
H         1.83914400110989    5.48139232289360    8.55812957817436

