117
CSD_code = CIBMOQ | q = 0 | S = 0 | Stoichiometry = C36H66N2O10Si2Ti | MND = 6
Ti        3.10538637634302    2.06271760810742    5.28492972792774
Si        3.55099232605507    4.36105174992797    2.93284382870067
Si        1.76701686482206   -0.93361487323717    4.93746683707568
O         1.66332676270563    2.86776466542202    6.06234967669301
O         4.82483100571155    1.43729670491232    5.18388265062961
O         3.21141877053018    3.11006437324483    3.85533423853430
O         4.54781672148013    4.03013272563081    1.67577010103507
O         2.19473195075873    5.02315112591986    2.28496998868614
O         2.27094787180471    0.56775508476586    4.78305257457335
O         1.02583315750455   -1.45642402685561    3.56224195315062
O         0.75299108011195   -0.95740042291312    6.22707687932333
O         2.91622707963113   -2.03332726390579    5.30007783611972
N         3.12898170062540    1.16566253829132    7.31418652357762
N         4.26764036384682    3.63854020790182    6.39189375124294
C         1.00103811182014    2.20096785412098    7.05739411625916
H         0.25198152225609    1.49876640623525    6.63478066575247
H         0.46336237284439    2.91113580713178    7.72101236329841
C         1.94015119309642    1.34963166285735    7.87537360022989
C         1.61073684995477    0.78248449491795    9.10541993452609
H         0.64904929297088    0.98175996833936    9.55431605821813
C         2.53353865579908   -0.03609193995294    9.72839309021587
H         2.30761207549631   -0.49481494417141   10.68094081018517
C         3.75687135234505   -0.26182441753311    9.10866427046258
H         4.49306045498513   -0.91069189716118    9.55637645415500
C         4.00987907003398    0.36977669711343    7.90372658336432
H         4.95081499620750    0.24956516985776    7.37980554532200
C         5.83248522216464    2.36266729400959    5.13476310450268
H         5.93483496207717    2.78677341277270    4.11337269266683
H         6.80507468081398    1.90374913222256    5.41166946956697
C         5.54385343496564    3.53151792722555    6.04342946460286
C         6.51234551452415    4.42592216943250    6.49654024854684
H         7.54492165798847    4.30064410111254    6.20610712033525
C         6.12340496116546    5.46428078259276    7.32107921073478
H         6.85040206650813    6.17090981360579    7.69666978855366
C         4.78045352859987    5.58544057199938    7.65741331283376
H         4.43830313499710    6.39199875361950    8.28683088868721
C         3.88983667584838    4.64870738634755    7.16249765540742
H         2.83114021803320    4.69575785084509    7.38926634134538
C         5.09287262696365    6.59150256554181    3.42323772770150
C         5.08132462532139    7.58935142485588    4.58696703454680
H         4.05596995473084    7.84151900984425    4.84417245073023
H         5.61229604328443    8.49652298340367    4.30990344240515
H         5.55536102648170    7.15042009222427    5.45973246013787
C         6.52721013588116    6.16434909358070    3.09846482817601
H         6.98779916527102    5.72121183709053    3.97786598636765
H         7.11820816596806    7.01632216265976    2.77225894624487
H         6.49145712543584    5.41968299212415    2.30955831752772
C         4.45617867314836    7.23252315606695    2.19148355088803
H         4.46771695537200    6.52206875118659    1.37260166376797
H         4.99999137920016    8.13019119648927    1.90753094478742
H         3.42226752140488    7.48731725765659    2.40198987428808
C         4.51587196088647    2.93739383366625    0.77112954495708
C         5.58691237268837    3.22624021350011   -0.28840073031842
H         6.55592330752123    3.35323464851462    0.18751230019136
H         5.34338677909133    4.14149353426610   -0.82147210590718
H         5.64536847839907    2.40532127286172   -0.99782595462726
C         0.92182439499607    5.15028653837036    2.90006345812874
C         0.12011137888151    6.11823993200731    2.02109517197283
H         0.60141214121905    7.09261001349111    2.00580260332728
H        -0.89190611630013    6.22719589086732    2.40161845056006
H         0.07979900077042    5.74089471291153    1.00296041342210
C         0.24211624229407    3.77943313049420    2.95364496762447
H         0.14262982260953    3.37525352496189    1.94900712897611
H        -0.74400072682917    3.86484076907682    3.40334131361318
H         0.86094526428706    3.10895201499970    3.55592437505076
C         1.06119568117465    5.69741494135836    4.32113038510104
H         1.54699992501362    4.94338115210127    4.94046776916202
H         0.08242405919385    5.93411127685455    4.73215825320700
H         1.67410245050962    6.59521629754744    4.31250698316523
C         0.27024433848889   -0.67910064017456    2.64582805242908
C         1.21800991012998    0.20057728080674    1.82648766936719
H         1.77693928838767    0.84170526857173    2.51103293473921
H         0.65397566423154    0.80810659235508    1.12355925595051
H         1.91829978614839   -0.42047900490579    1.27253127454796
C        -0.73047090286921    0.20857371194691    3.38721933241315
H        -1.38025360738231   -0.40279195208382    4.00832391642136
H        -1.33613469059489    0.77112650185004    2.68133446639449
H        -0.18278311649347    0.89753323514486    4.02754933081419
C        -0.46272652479857   -1.67408650582453    1.73825176198861
H         0.25678299264504   -2.31612017699621    1.23717968277146
H        -1.04735181044029   -1.14429955026211    0.99111648959262
H        -1.12429320395022   -2.30029020341479    2.33093843117273
C         0.11321520850870   -2.06030450306104    6.84661561014459
C        -0.42042769303081   -3.05007404610228    5.81128134015317
H        -1.10121184889501   -2.54508493817365    5.13272829222170
H        -0.94458312742824   -3.86588816555589    6.30320625687036
H         0.40644580241058   -3.44350725954801    5.23004886388204
C        -1.04994209867885   -1.48508426304309    7.66403542424396
H        -0.67167701340146   -0.76987247938145    8.38878586888490
H        -1.57451989730212   -2.28077955005929    8.18669633203401
H        -1.74625615495490   -0.97227911318731    7.00562416655006
C         1.10951924697790   -2.77284863774766    7.76501366416574
H         1.97540379137170   -3.05626318709505    7.17585947382689
H         0.65666778317462   -3.65639332735717    8.20781759177576
H         1.43539302541996   -2.10158642308368    8.55464336427402
C         4.02731240274098   -2.48223889424107    4.54255645852120
C         3.60800252157256   -3.75819107043130    3.80371743471445
H         3.33669600251794   -4.53277580733445    4.51722473558969
H         4.41678600928581   -4.12070530691245    3.17459965552920
H         2.74026690598619   -3.53532422650320    3.18923292055329
C         5.14608723434390   -2.77882116595968    5.54728802396187
H         5.45488064954342   -1.85045939979657    6.01983665220689
H         5.99869096886435   -3.22830967983727    5.04480085388691
H         4.78630145484630   -3.45919040700158    6.31538277285973
C         4.49023189404665   -1.42117201385394    3.54781451401680
H         3.73363792540266   -1.29013091432075    2.78049931700957
H         5.42701465707539   -1.72068096113678    3.08317712079961
H         4.61840852286610   -0.47013958529895    4.06656430168931
O         4.37079634069392    5.44729414195172    3.84929693598597
C         3.14017168106712    2.83763774090600    0.11503419458650
H         3.13439329626303    2.06215624891773   -0.64672159566212
H         2.88303031457192    3.79229159740673   -0.33589153295408
H         2.40370603126003    2.60778299038604    0.87724743724105
C         4.84020665959059    1.64018981561519    1.51914892616860
H         4.19400853958467    1.55417434209598    2.39559636273637
H         5.87469204964504    1.65196732665911    1.85580802865247
H         4.69274893838517    0.78155608969483    0.86942672209672

