71
CSD_code = CIBNAF | q = 1 | S = 0 | Stoichiometry = C28H31Br2Cl4FIrN4(1+) | MND = 8
Ir        1.47335382002468    1.92699740336499    3.82953421675965
Br        1.10392877468710    2.64753277664633    6.22252466546665
Br       -0.13021483312932    7.76624745761256    8.37353834445743
Cl       -3.60772453778356    4.56279167204203    2.83151389362645
Cl       -3.85232597569389    1.17733625695218    1.81008986632409
Cl        0.63797667128659   -3.38610463980580    6.00480864001191
Cl       -1.74532682246167   -2.81106999010426    3.43014857055063
F         3.79299069506764   -2.01966018463826    7.98768924174542
N        -1.18783107432232    3.49176666249191    3.42684338929289
N        -1.33099877984505    1.43935331311939    2.77370180842235
N        -0.28154513599096   -0.53300503822622    3.55791282294636
N         1.14874328783775   -0.87141694257566    5.13675871506891
C        -0.49082636627993    2.34397489553709    3.33706838112379
C        -2.45795639611659    3.31750523317537    2.92602408717995
C        -2.55487870593815    2.01757158997307    2.51591769093616
C        -0.97110012765949    0.08209627616765    2.45407624120926
H        -1.88067976709842   -0.48772069832059    2.24110903962290
H        -0.31882915361358    0.07752367894405    1.56948405433693
C         0.74381521812895    0.04132497171173    4.23647941821932
C         0.38695332495421   -2.01458397960675    5.03704460289928
C        -0.52500560253973   -1.80074689232046    4.04185293764352
C         2.22274938301729   -0.72986784929553    6.09399041146421
H         2.99954010737638   -1.46436635979286    5.86087150532149
H         2.63746472766751    0.27480347631820    5.98286502000679
C         1.75972380719896   -0.93053067440551    7.51562344531909
C         2.59352490613644   -1.57239911669240    8.42308645473893
C         2.23723653794891   -1.77109476090476    9.74199680562628
H         2.91994152384437   -2.27547599678651   10.40659609878077
C         1.00450452458566   -1.31234462458391   10.17314288350295
H         0.71037930969233   -1.45911285212104   11.20011554678805
C         0.15634144149764   -0.66547042830435    9.28987411431667
H        -0.80068162862710   -0.30247017543192    9.62917769021222
C         0.53086037538532   -0.47428355207041    7.97153504473231
H        -0.13053401441169    0.04156568341833    7.29301462082919
C        -0.72222987557745    4.73337147349771    4.00435604253031
H        -0.94651716296161    5.54458570768658    3.30845793625763
H         0.35732577435549    4.64657443795469    4.12771919775591
C        -1.35946934960788    5.01148876697363    5.36838383666411
H        -1.31987572899309    4.10362680074017    5.97009175707700
H        -2.40252522426026    5.30256784497601    5.24843670092754
C        -0.58550686108630    6.11472151001169    6.08757578249005
H         0.45756459642810    5.81031954308142    6.19040979606897
H        -0.61950904955037    7.03847094653008    5.50616165133564
C        -1.15336687576693    6.36356129532516    7.47319904454120
H        -1.07592434236012    5.47435658402031    8.09675614896277
H        -2.18579333194319    6.70836815452024    7.43827301470453
C         2.60541062824569    1.80826270470580    1.94654670784661
C         2.29425215512623    1.15232305188592    0.64284890684432
H         1.38793401508150    1.55881905049673    0.19884898026957
H         2.18755570571076    0.07545415344967    0.75468432490973
H         3.11360022529408    1.33253261890797   -0.05525347158552
C         2.43442033719352    3.21418993307196    2.22525060364674
C         3.06500209523924    3.49027644739336    3.45797388975531
C         3.70617631823708    2.26707030293572    3.92166729666487
C         3.46439115589343    1.25600918494739    2.96576241120521
C         1.82959367457843    4.19887104519017    1.27984716367598
H         1.57983456491907    5.13157051457365    1.77800260718575
H         0.93158983765028    3.80469444522225    0.80789151424862
H         2.55029540397210    4.42060350006708    0.49152535393380
C         3.29211455323558    4.82302014293792    4.08907460652303
H         2.65054459764796    5.58902714098061    3.66103267289435
H         4.32904396358046    5.12150889336891    3.93028100177990
H         3.12435825857457    4.78459149350378    5.16430505916154
C         4.65324872331245    2.22445541927909    5.07361892739182
H         4.93785451459607    1.20653326535061    5.32715201334370
H         4.22514444432648    2.69779238647777    5.95603091688737
H         5.55813889109228    2.77492488597565    4.81293451513676
C         4.08942284200505   -0.09839814250293    2.90874998366607
H         4.90954327659693   -0.07884151322264    2.18964171448100
H         3.38024990659923   -0.85717492498377    2.58295444352698
H         4.49633782778976   -0.39169565680052    3.87239667779990

