64
CSD_code = CIBWOB | q = -1 | S = 0 | Stoichiometry = C27H15F18O3Zn(1-) | MND = 3
Zn        7.75150303063887    2.67210290760197    5.13815008703566
F         8.79467001589476   -0.29682194568276    5.75831796444740
F         8.45449148652168   -1.73992114027964    4.21668799086963
F         6.86999469502766   -0.43737366094075    4.83262590155299
F         9.20559849861760   -0.99302201692744    1.80683522762472
F         7.12366974510172   -0.51386881064195    1.96214380973242
F         8.50854250961596    0.92452946983648    1.17403046263229
F         7.49656494931643    2.12110684983579    9.28696143623769
F         8.28865637916528    0.35720127499291    8.38747150295913
F         6.94783958773402    1.60723565841552    7.27555060402883
F         9.20097869389851    4.13409495165743    9.32648124128651
F         9.88962214279410    4.70649209371127    7.38582118948698
F         7.78857070031038    4.40345428302690    7.73897788732030
F         7.24831240463952    4.16616734103386    2.65253090480805
F         5.23850069336993    3.46824998634593    3.02948728905209
F         5.57706594301434    5.47432522676544    2.37141235374723
F         8.56288536190541    5.14413243632431    4.75372299051218
F         7.42481596121238    6.57913639683831    5.88430067589213
F         7.53356051318042    6.73630958652775    3.75598238416306
O         7.74057054668645    1.66123684325757    3.64504422119279
O         9.19118198104261    2.40223426215438    6.20737249745117
O         6.39086305830328    3.81538587315810    5.42602651589207
C         8.57945212698063    0.60484936079760    3.53553763115666
C         8.17960746496547   -0.46844875899899    4.58260425624737
C         8.34582504372659    0.00107246400975    2.12321310644806
C        10.06239459234057    0.94453363960581    3.64339400888453
C        11.02182150794321   -0.01816897342772    3.92717474937613
H        10.74395842761912   -1.04801372685872    4.08867395790080
C        12.35577403542255    0.34427775043526    4.00393991310805
H        13.09768419151859   -0.40730955101549    4.23218217800696
C        12.73721274969876    1.65863703670977    3.79507320044541
H        13.77970017465211    1.93703706077504    3.86273133532099
C        11.78004804375414    2.61442459051698    3.49889990713559
H        12.06891977701453    3.64138531023863    3.33328300722627
C        10.44593428132799    2.25862978881869    3.41751342250582
H         9.69013529396506    2.99031038518028    3.17458716253528
C         9.18220778270574    2.44511900427052    7.55330401318892
C         7.98263067894594    1.63468385522982    8.12887003876493
C         9.00468875447258    3.92272143793386    8.00714210222521
C        10.48890938845848    1.92727923837183    8.15634156010140
C        11.56798561612030    1.74696484979590    7.30507722097865
H        11.42889109623470    1.96531310906447    6.25944210767454
C        12.77386839223917    1.28917043936476    7.80232565531571
H        13.60789707416470    1.14745796136757    7.13091257745621
C        12.90767578035590    1.01374121536339    9.15234525797102
H        13.84919746814910    0.65484330100899    9.54391040337253
C        11.83071126151111    1.19798667999432   10.00247679603646
H        11.93010819451043    0.98447626188560   11.05682489637508
C        10.61934294584973    1.65398930928571    9.51126126146031
H         9.79001457552954    1.79456128973493   10.18728788597545
C         6.18369645593710    4.91161838843268    4.67006844689720
C         6.06048969137236    4.50050624148526    3.17479247146397
C         7.41909458236923    5.85007036417537    4.76592070193621
C         4.91985887382853    5.66286705205679    5.09031066890924
C         4.62808046993716    6.94264645856639    4.63818537984434
H         5.29216353135001    7.45943911875731    3.96356550699194
C         3.46273981208248    7.56546280893794    5.05287764908556
H         3.23892654790420    8.56167220638068    4.69977013394091
C         2.59037296740017    6.92152090443784    5.91285201678031
H         1.68332950884952    7.41523765674149    6.23231149842067
C         2.88483391738440    5.64567950754433    6.36286759478460
H         2.20924309426534    5.13799598030324    7.03555807209116
C         4.04620192185275    5.01738451898416    5.95357322615020
H         4.31261300721856    4.02868659675550    6.29078188165590

