51
CSD_code = CIBWER | q = 0 | S = 0 | Stoichiometry = C24H24S2Ti | MND = 12
Ti        7.77553819735844    5.00944410904506   13.90970557601686
S         6.08522116563385    3.39119036118299   14.18909474838560
S         8.10365670883378    4.30059722106379   11.68528507759813
C         9.79596076274161    5.58421402691076   15.03945986634341
H        10.18116065779792    6.57758410956560   15.22306225966068
C         8.98771674006917    4.83734772971144   15.91889987415747
H         8.64946456500249    5.14702408901545   16.89993337742337
C         8.85191720003603    3.53645764681578   15.38823929115925
H         8.40512516314803    2.69659848786705   15.90593144881700
C         9.55019138806165    3.49236215630730   14.16614467687059
H         9.73033672558606    2.61476997752570   13.55859449433027
C        10.11362759612952    4.77141871012858   13.93847340838061
H        10.77575177006600    5.02674173776872   13.11964048891585
C         6.95169601583991    6.88098418592344   12.75785495580089
H         7.04310320368998    7.07844341036925   11.69667151133933
C         7.83446732172354    7.35922055464107   13.74942749128757
H         8.70907040430517    7.96913426484913   13.56096085505160
C         7.27472321961259    7.06764894364785   15.00883860527108
H         7.65221754684697    7.40657118017967   15.96363296201633
C         6.07601944617443    6.36460918171104   14.80351501111759
H         5.37182875136768    6.05626611540866   15.56707404581966
C         5.86234886073790    6.26779454911921   13.40705890416868
H         4.96213690751045    5.89050074197412   12.93903828504182
C         6.74198078308651    1.78537338593261   13.58989066472853
H         7.50708226692160    2.00210684465249   12.83926603367204
H         7.19409704986922    1.27385551610309   14.44541635190588
C         5.65514683351861    0.94022161007664   12.99805933514821
C         4.45261036149287    0.75824345881408   13.66970987478384
H         4.29684593818936    1.25867591175924   14.61428390949519
C         3.46130428407571   -0.03813675259832   13.12741256544642
H         2.52885352163480   -0.16993546786502   13.65658194609201
C         3.66458094761962   -0.66849843591142   11.91078869380772
H         2.89150395494678   -1.29455580498441   11.48957483541395
C         4.86017835460418   -0.49155387550536   11.23695345319876
H         5.02615777341936   -0.97722129086409   10.28660546857447
C         5.84904710532889    0.31401533850096   11.77389684091254
H         6.77731843368196    0.45656005938616   11.23901653270432
C         6.45913950649189    4.21729259535187   10.88082238250961
H         5.73440845211846    3.92532082890099   11.64726683258939
H         6.21837624324773    5.21958370480007   10.51114992351514
C         6.43596351792494    3.23753605627358    9.74510294043185
C         7.52036173940506    3.10193015110339    8.88821472664987
H         8.40664720473073    3.69370915120729    9.06459423001453
C         7.47258575296050    2.20887220405281    7.83297812380206
H         8.32503718438317    2.10737387720087    7.17678883408915
C         6.33569830170577    1.44847809812476    7.61710708237724
H         6.29863951897823    0.75064904645577    6.79301905960539
C         5.24839208204301    1.58376269957860    8.46368920250039
H         4.35782330865807    0.99413908538914    8.30214484960851
C         5.29921356127842    2.46904565977304    9.52556820933839
H         4.45222569946171    2.56313285348690   10.19065988218106

