101
CSD_code = CIBYEU | q = 1 | S = 0 | Stoichiometry = C51H44AgN2OP2(1+) | MND = 4
Ag        8.25836923333161    5.31323038512661   10.30317534326376
P         5.88780191678793    4.45869642376620   10.80521243883097
P         7.84510537239306    7.26995365772801    8.74746359452521
O         6.03139995968356    7.23558641331322   10.80033609422272
N         9.90804094174693    5.47594719408529   12.01942539642033
N         9.74527207920961    3.44616695130052   10.16303962083741
C         6.44531875652979    7.01371726841418    7.60827919326069
C         5.34095288976666    7.85262726842274    7.52981357750070
C         4.34766580376879    7.59662706480073    6.60067482073305
C         4.44817552537010    6.50944396292801    5.74996735216532
C         5.54474633888697    5.66593961705403    5.83019369533428
C         6.53655902498657    5.91527966171440    6.75759616747643
C         7.32547838772644    8.76961829553151    9.63160823344184
C         7.79257017810153   10.05450747467465    9.40645833077153
C         7.30899817884077   11.09501132749593   10.18158130127155
C         6.38502685439647   10.85446334933375   11.18231789939026
C         5.91799015422350    9.57110833998039   11.45269321177289
C         6.39846902677403    8.54144091407053   10.65673762060901
C         5.23470494818696    6.89383072204599   11.85570810841083
C         5.02861677846793    5.51731423790851   12.01184441789905
C         4.65020670343208    4.36150781076847    9.46984871608142
C         3.62653088677052    5.28640512244790    9.30897057573429
C         2.72811910530155    5.14709538821755    8.26581964699305
C         2.84737989365303    4.09480937354722    7.37489070587955
C         3.87827779682834    3.18003595580759    7.52028410723328
C         4.77868450992068    3.31571221966104    8.55795824726483
C         5.74318342108046    2.80900864053728   11.56342625053471
C         6.86982463615303    2.31277000437870   12.21134331199025
C         6.84036923945596    1.06737583944032   12.81107750222735
C         5.68223454503353    0.30848889237151   12.76516715990097
C         4.55577590880752    0.79852896206051   12.12265185562575
C         4.58123943146844    2.04366539877163   11.52123540974742
C         4.23703544613871    5.06052333268733   13.05349385904432
C         3.64518276260081    5.97443853527938   13.90757045962232
C         3.85940294484906    7.33042873915230   13.74047496672000
C         4.66954706463505    7.82140906605459   12.72107831086896
C         4.91480112277780    9.31155551102870   12.56154673233461
C         3.58802670899278   10.00069680134611   12.20129685041655
C         5.46644858427466    9.87237588563851   13.88225831243069
C         9.11137745237249    7.90893990312036    7.60746291940190
C        10.44155668928958    7.62285539891987    7.89516304541031
C        11.44817726110339    8.09466445083094    7.07244158357636
C        11.12809206428123    8.84775246553148    5.95449100404806
C         9.80257711048365    9.12752389203935    5.65912588995295
C         8.79281875213479    8.66086992371068    6.48025267467318
C        10.87199211021226    4.55064743525041   11.96611193860968
C        12.09674042064159    4.72818359420536   12.60441786495434
C        12.30798961021768    5.88627867844191   13.33263338276646
C        11.29190858372609    6.82235659273957   13.40877575816262
C        10.10151515228740    6.58419613046311   12.72893695559023
C         8.97837819581899    7.56789965692462   12.76162767594536
C        10.58243393349433    3.32749948390414   11.19895360517074
C         9.46816999375789    2.37976098953068    9.41948035306526
C         8.56266830638319    2.58452836137300    8.25076780522786
C        10.01231164443811    1.12900230032509    9.69707385218345
C        10.85018227853584    0.98839880120692   10.78844859015699
C        11.14503551151411    2.10420811296255   11.55323398177911
H         5.25919081965789    8.71060342924194    8.18218497199197
H         3.49498867717517    8.25617313200332    6.53593380474738
H         3.67404472699963    6.32042850991106    5.02228093145820
H         5.62488371362803    4.81748367773943    5.16753283335742
H         7.40457666483119    5.26996668189717    6.82081614018342
H         8.52229709054179   10.23798832535962    8.63235145461172
H         7.65433731623439   12.10138971138547   10.00329588196404
H         6.02076216424850   11.68609320872306   11.76425957204886
H         3.51803389221858    6.10627549530597   10.00389866427525
H         1.92584516225197    5.86094486651515    8.15394745134035
H         2.13774164808073    3.98545022198039    6.56924859992926
H         3.97508592622926    2.35818073343789    6.82663315147916
H         5.57676382247095    2.59654750945669    8.68605832338112
H         7.77064181530750    2.91628682260176   12.24084312760584
H         7.71886946501628    0.68735770343455   13.31137338969537
H         5.65631683581081   -0.66555132675729   13.22933113684219
H         3.65333603078151    0.20670895414988   12.08995698510948
H         3.70345395322829    2.42159782240261   11.01585141251632
H         4.08516898777257    4.00108563216713   13.19324695613246
H         3.01399254693569    5.62755298075002   14.71070971229482
H         3.38446651542650    8.01989662890609   14.42019746486326
H         3.73376657966436   11.07111581361522   12.08510386150089
H         2.84818523616827    9.83667662383918   12.97984820556434
H         3.19704028720064    9.60326255407590   11.26618893250336
H         5.65578214118357   10.93822582185760   13.79971464610763
H         6.39904538247495    9.37488182206141   14.14213177320047
H         4.75867222862877    9.72044029853305   14.69138611787041
H        10.67654482664418    7.02212444763435    8.76782562178356
H        12.48054245774527    7.87319474901587    7.29882422251009
H        11.91177141421132    9.21420174607112    5.30915808316279
H         9.55609748030521    9.71130397475959    4.78498454335226
H         7.75829069811311    8.87471376761673    6.24976426532504
H        12.87461262432413    3.98800452310776   12.51349091963822
H        13.24816980700817    6.05304128126085   13.83538836615039
H        11.41448253915056    7.72826479760049   13.98068214479500
H         8.02830225029724    7.04145394865444   12.66260701460571
H         9.07664168373943    8.27051906127522   11.93182605469938
H         8.98347540385317    8.13518679312233   13.68876796714341
H         7.90232868384731    1.73117845903350    8.11822410146758
H         9.15485629988673    2.69792269365995    7.34253982824685
H         7.97194250825608    3.49443639769733    8.39786087037624
H         9.77337565005888    0.28580439716414    9.06878824469443
H        11.26890750275556    0.02613268414904   11.04013103910932
H        11.77841040756320    2.02234444322970   12.42129293085851

