31
CSD_code = CICBAU | q = 0 | S = 0 | Stoichiometry = C10H12N6S2Zn | MND = 4
C         3.93138258727327    8.24411259210533    5.05317133472430
C         8.56991899139704    8.22409768357986    8.19977449840655
C         8.46140460649209    5.63244107802751    6.11250305861027
C         6.86467176686499    5.17959707665656    4.76029911035933
C         7.95229374162319    4.46977418151816    4.34836075932722
C        10.30236598227430    4.26222982419049    5.17296469982614
H        10.88611230549490    4.72174162195893    5.96806580180956
H        10.76204205048136    4.49827915772886    4.21206825241504
H        10.30495547245419    3.17893491498976    5.30627635591888
C         3.53757786092626    6.53132242223613    7.89841479913721
C         5.06141756271991    6.14953488649692    9.35299015247871
C         3.86466035630798    5.87980538571059    9.94587169497858
C         1.48698794356357    5.99307297685963    9.18609663714888
H         0.98002642511788    6.29447116954644    8.27168205516411
H         1.14817256100758    6.62734280832046   10.00666381604636
H         1.22950344771008    4.95720564881197    9.41420557407778
N         5.01094106668841    8.13710886704138    5.51623347621018
N         7.48010653455022    8.23143211726544    7.74877436013838
N         7.19711455325136    5.90101198349427    5.86489453909004
N         8.95992092838687    4.76939232897995    5.21890641918423
N         4.84188593037619    6.55425219411879    8.07289946016059
N         2.90527711234866    6.12812405861051    9.00722990453733
S         2.48153331069753    8.35153806650262    4.44862384742399
S        10.02491421291259    8.17390049714234    8.80016071846609
Zn        6.15403689930977    7.40238974627298    6.76507600181627
H         9.02930049446796    6.05117453170186    6.92010979440546
H         5.88045206319322    5.22705693606341    4.34100462189497
H         8.08861955628166    3.79710305261540    3.52715109146123
H         3.03716833372398    6.80369010333979    6.98978171030432
H         6.05227814641535    6.08817543783342    9.75453953451141
H         3.62365719568297    5.54418665030027   10.93320592001433

