55
CSD_code = CICBIC | q = 0 | S = 0 | Stoichiometry = C18H24CdN10S2 | MND = 6
C         0.60010716537969   -0.70664078654262    6.97002980021823
C        -0.68688832669268    0.05342565753526    3.00582412343696
H        -1.09467169186136   -0.25279695540873    3.94942542601371
C        -1.32888156740449    0.42289536222972    1.85993614944975
H        -2.36915493879332    0.48994687686127    1.61451853073103
C         0.82580242899220    0.54518001825551    1.58373864422927
H         1.77382562901982    0.70754038814487    1.10710874992165
C        -0.54486400172540    1.17087928694162   -0.39521105847572
H        -1.06953765359606    2.12864136415667   -0.41698275326067
H        -1.13141821991284    0.43782692238246   -0.95233485817288
H         0.42602649726385    1.28565977878131   -0.87384198217093
C         2.97827775755303    2.46119200973152    5.52402279135556
H         2.47190690093931    2.14697656312518    6.41573085096892
C         3.57727931285137    3.65327559265329    5.23826055493502
H         3.69798148530327    4.54760906560450    5.81481650677688
C         3.73826550882712    2.30744931876323    3.53627759174962
H         4.00027509004064    1.94048927985277    2.56209806790201
C         4.77287338402717    4.54865059487469    3.23084614719243
H         5.02917133870528    4.15673207873889    2.24817628875450
H         5.69057960849232    4.82534659492333    3.75388276820836
H         4.15654045710915    5.44193640559353    3.10949781673455
N         0.94254695590964   -0.17278774241886    5.98480930057454
N         0.65687218635832    0.13598601037674    2.81698977613591
N        -0.35106464334182    0.73282033906508    0.95762423022452
N         3.08799239242606    1.63233780608259    4.45191065262603
N         4.06023575491732    3.54233447583588    3.96506802718854
S         0.15536232743587   -1.46695794990571    8.30413933755260
Cd        2.26947438703759   -0.54262570613313    4.33951293280144
C         3.94339422731869   -0.38208094447893    1.70906231966034
C         5.22782534921603   -1.15488679221904    5.65877861952294
H         5.63104449974120   -0.85788015507072    4.71029705449583
C         5.87508365927846   -1.52543260038053    6.80130035296579
H         6.91652785739942   -1.60256575926782    7.03856988607728
C         3.72150811039810   -1.62293341781224    7.09566223923324
H         2.77556303347352   -1.77327077325425    7.58034956070238
C         5.10197578215275   -2.25324456781422    9.06661095289106
H         5.61992550789849   -3.21459717123981    9.08907954810156
H         5.69792606994434   -1.52189609081914    9.61595910126335
H         4.13393180871665   -2.35886577415384    9.55296627327903
C         1.57569890758058   -3.54677913506813    3.15395272887935
H         2.08693962999538   -3.22984799417678    2.26600905928807
C         0.98082941669608   -4.74186473809130    3.43551779263073
H         0.86903278536593   -5.63686947339209    2.85824502302487
C         0.80048114629104   -3.39673699503007    5.13616270749505
H         0.53024001941605   -3.03107287620516    6.10859397616893
C        -0.22446988788061   -5.64376902882737    5.43385355251157
H        -0.48711005864612   -5.25498318667393    6.41605608444149
H        -1.13853751290231   -5.92275197312266    4.90568013114910
H         0.39449217951310   -6.53505343398235    5.55630901106028
N         3.59625327324399   -0.91520556706984    2.69297661465537
N         3.88484185536525   -1.22194634068141    5.85896160435121
N         4.90139973954957   -1.82019753342699    7.71314704396662
N         1.45375043615237   -2.71836550405966    4.22508128043832
N         0.48814682455318   -4.63338760033858    4.70520903918246
S         4.38578981495645    0.37516277650027    0.37233402896154

