59
CSD_code = CICDUN | q = 0 | S = 0 | Stoichiometry = C28H27FeO2P | MND = 8
H        -7.12473450794319    0.18207112714276    0.11047548494885
H        -7.25459067092679   -2.28118460953781    0.05333361859969
H        -5.88754159316137   -3.54807666719521   -1.57810825054902
H        -6.73718662523117   -1.67754133660452   -4.21722996847447
H        -7.97415334331037   -1.37578335504932   -6.31738692067749
H        -6.93360255263511   -1.97705121199549   -8.47111599207033
H        -4.64822940084906   -2.90832604600171   -8.51387491174959
H        -3.41421531710376   -3.23381549146528   -6.39459764766172
Fe       -3.86095593292519   -4.88169871999787   -3.10646263399295
P        -4.04483843052779   -2.79489152098929   -3.63954525343497
C        -0.92491989853362   -6.22509752268440   -1.82573982703607
C        -0.93166172168558   -5.46676450737888   -3.11589518367972
C        -1.99595150897061   -4.86490948126341   -3.62582054828000
C        -0.78478821354219   -4.06367149810413   -5.54990808755195
C        -3.44590109757166   -4.45493916152948   -1.48684667831875
C        -5.84390340285692   -5.45495692887117   -3.77399904909246
C        -4.90980172597395   -5.77410134379388   -4.80618896847661
C        -4.02171669675350   -6.73276387338355   -4.30520240032036
C        -4.35804959666072   -6.97980578076827   -2.95143888220111
C        -5.51658808416159   -6.22064933710998   -2.64378729916289
C        -2.58019445038372   -1.71347062506592   -3.79381933976009
C        -1.60995283024273   -1.84964903999173   -2.80456568731373
C        -0.46411530408385   -1.07801066178869   -2.83966001967615
C        -0.27595914575858   -0.16193675405546   -3.86314844256239
C        -1.23972621402478   -0.01961868859028   -4.84658313170335
C        -2.38986464007499   -0.79023378690535   -4.81494875624537
C        -5.01067682470075   -1.80359417111763   -2.43580581934835
C        -4.94571531257378   -0.41385347532241   -2.40126283588642
C        -5.70443292131289    0.29468213666726   -1.48732051171706
C        -6.53578597089644   -0.37450196295324   -0.60368922644115
C        -6.60812855048786   -1.75741962574558   -0.63564515576151
C        -5.84842271842548   -2.46780273095131   -1.54722435841493
C        -4.97647430060474   -2.44766528901938   -5.17345526939805
C        -6.27188375354859   -1.94197145417988   -5.15633538725065
C        -6.96936571340447   -1.77262050500773   -6.34045277358898
C        -6.38663258836628   -2.11146428617563   -7.54943445718696
C        -5.10205051695464   -2.63269836960548   -7.57247683433885
C        -4.40521101948517   -2.80819741982449   -6.39228482043939
O        -1.99652590028989   -4.19942385040230   -4.84055209018928
O        -3.24135158449882   -4.16643788802519   -0.38948603872353
H        -0.53232809549044   -7.23026373507699   -1.97960268332806
H        -1.93192643151465   -6.29793165090278   -1.42575090822948
H        -0.29039946589900   -5.72970122143786   -1.09037548835299
H         0.03039286181516   -5.44747440251819   -3.61726281377846
H        -1.00432951988598   -3.46815303761210   -6.43610949081276
H        -0.39442972208287   -5.03950421986073   -5.85551712353539
H        -0.03359570089858   -3.54345700793664   -4.94728919042608
H        -6.72340692403528   -4.84292407215764   -3.90083180013711
H        -4.97180532960227   -5.43541738526070   -5.82631033594177
H        -3.23852506679192   -7.22427444240668   -4.85658029523633
H        -3.92347689439894   -7.74274628465698   -2.32664960626436
H        -6.07582458478300   -6.27564853163480   -1.72442267158748
H        -1.75962559685373   -2.58280053155265   -2.02428583902446
H         0.28696498190961   -1.19282217644480   -2.07182290900847
H         0.62171439279260    0.43809073409941   -3.89508902429634
H        -1.09619300094321    0.69503053147861   -5.64454327737311
H        -3.13710009768385   -0.67161976843408   -5.58723632358214
H        -4.29853822333943    0.11114231405483   -3.09017483612345
H        -5.64666700087097    1.37332060290264   -1.46295502783284

