50
CSD_code = CICGUR | q = 0 | S = 0 | Stoichiometry = C16H18CdN2O11S2 | MND = 7
C         5.58005256944607    3.71133373792541   -0.41218414815998
C         6.68612653147872    2.99441035136296   -0.90626463307546
C         7.78167456496582    3.63767606739769   -1.48240006102494
H         8.59680329866050    3.02759215864814   -1.84050864692799
C         7.79951989945691    5.00810945675249   -1.58098590443507
H         8.64068519111955    5.51495894210941   -2.02518988340468
C         6.71302929231238    5.73479592720331   -1.09943551460315
H         6.71624489959037    6.81185660159858   -1.17319877867007
C         5.62861562348828    5.10565119299720   -0.52900499065346
H         4.80947233442845    5.70587783917581   -0.17269258300423
C         3.12609749177068    4.19031465831060    0.81297954578042
H         3.64381771982282    4.83283556737625    1.52179652864861
H         2.76635018375065    4.72994973115962   -0.06015560762020
C         1.97538780098344    3.49249593170981    1.50758998312497
C        -6.04575064515694    3.31392872816791    3.84701909884773
C        -7.22447724787810    2.54427266097173    3.83216774757999
C        -8.44675926408847    3.06239544326641    4.26144431522451
H        -9.31136035538201    2.41733630231142    4.22602779115052
C        -8.52418889723759    4.35873711833813    4.71008152800864
H        -9.46358855060976    4.76845794352263    5.04409924126932
C        -7.37024512383983    5.13914392507355    4.72403263520401
H        -7.42036563734120    6.16088073260332    5.06909015867445
C        -6.16034092037052    4.63284159869484    4.30379086066436
H        -5.29522772518239    5.27269408911802    4.32791442231847
C        -3.34217013260479    3.92989251754632    3.60644427266870
H        -3.54537956672251    4.76995236566479    2.94277307570086
H        -3.33586134332871    4.24772179022732    4.64701454675178
C        -1.99958077224856    3.32745361483389    3.23996515360095
Cd        0.14390889976945    2.27218798247328    2.60746870559511
N         6.69763157294979    1.58481132994625   -0.81819024365410
N        -7.18031254706829    1.20887465075111    3.37427733343947
O         7.66579611431754    0.97324532073654   -1.22589288166673
O         5.71116733411834    1.05012517917225   -0.32407684225943
O         0.89819456585106    3.33510390238006    0.88833549690364
O         2.14271981095815    3.06896043759506    2.66979976858058
O        -8.19737483439149    0.54264151856250    3.39219898512983
O        -6.09817122858987    0.78945099759239    2.97877724141867
O        -1.97302722441442    2.46403219533510    2.33322312176000
O        -0.97501908592652    3.68880446434657    3.85176356292830
O        -0.98388485041432    1.37896360229345   -0.24806646183964
H        -1.77845164687830    1.73729699157864    0.16769065943979
H        -0.39144340006673    2.12880331011970   -0.38797609215231
O         0.10506426808300    0.17978737075973    1.87434281048121
H        -0.60014041453243   -0.32586949383351    2.29826018513273
H        -0.23100766250304    0.38312797463235    0.96616429387169
O         0.73852761524209    1.42940545321830    4.67498857254747
H         1.69803866674946    1.48640554137966    4.56930876227622
H         0.48547337811687    2.20524619329653    5.19365170025387
S         4.25588974329468    2.82657718638438    0.29670853036450
S        -4.55866029451524    2.58685089959232    3.30413263673921

