166
CSD_code = CICLEI | q = 0 | S = 0 | Stoichiometry = C83H77ClP4Ru | MND = 6
Ru       13.06585008680077    1.03919896936019   20.63748382142003
Cl       12.77343427485567    0.95835611581313   18.22660410025565
P        14.45450749635009   -0.76379898211585   20.68785485671796
P        15.09044393906687    2.12237897878317   20.84269231183655
P        11.03493460150690   -0.03927212054087   20.29054202741025
P        11.66651220009056    2.84176699619651   20.66902926004532
C        15.29775185371433   -1.16051355277462   19.13055565656529
C        16.60410118209122   -0.78539670825903   18.83969893020819
H        17.21817438818276   -0.30311288833679   19.58668107631369
C        17.12708490213108   -1.02216867821776   17.58048637070201
H        18.14322943436408   -0.72658333348143   17.36088656616822
C        16.35080168180383   -1.61971849487715   16.60256490007030
H        16.76180513652196   -1.79341006532587   15.61865879566831
C        15.04421193836331   -1.98790441414842   16.88372256908803
H        14.43167112913904   -2.44658950280617   16.12121391520108
C        14.51868909383188   -1.75599411460878   18.13891774324169
H        13.49672921895092   -2.03003595606404   18.36603210918298
C        13.97044246404031   -2.39608003148685   21.33164629262987
C        13.18348253803451   -2.38903558161803   22.48075484506267
H        12.86820178392089   -1.43739233776376   22.89199957982288
C        12.80278457475235   -3.57765597013296   23.07333037380139
H        12.19036824614649   -3.56467362703999   23.96353298466616
C        13.19964670413501   -4.78360279667983   22.51632189465975
H        12.89774569363486   -5.71524683148913   22.97256736847098
C        13.98275888885619   -4.79418558237208   21.37434751281570
H        14.29357396747839   -5.73423403575205   20.94134823795154
C        14.37441856180233   -3.60595177538158   20.78197736016187
H        14.98944541928668   -3.62192412144313   19.89342169412084
C        15.81869365675764   -0.40755626620329   21.88476040797125
H        15.39781035754854   -0.67290517614823   22.86050068971333
H        16.65458533548169   -1.08631542962287   21.68440232088913
C        16.23953186246446    1.06114772258050   21.87024880379413
H        17.24855081730880    1.17655197928426   21.46390134134992
H        16.24161099397240    1.46420224673351   22.88538681044524
C        15.17400647715461    3.72052659612787   21.72454777647921
C        15.00994766421639    3.78979133364026   23.10544016095380
H        14.85420641110826    2.88667952781916   23.67612319107468
C        15.01330639027075    5.01312229156357   23.75256518736084
H        14.89155882579761    5.04771898660671   24.82584474809116
C        15.16097823838589    6.18497863256122   23.03028829809847
H        15.15770046179790    7.13911775714936   23.53642678007306
C        15.31166413759312    6.12636078222376   21.65496996701079
H        15.42396691688648    7.03498294667452   21.08162616768661
C        15.32101906755988    4.90558873612969   21.00713057883247
H        15.45037682611357    4.87133654843114   19.93538820889116
C        16.23382294935989    2.49434125443973   19.45754045312692
C        17.46879899492352    3.08015881803099   19.74093017051962
H        17.71300569100238    3.35526712887818   20.75933903247091
C        18.37239212664731    3.32625686086131   18.72731541587033
H        19.32560867988170    3.78166525555876   18.95621642602768
C        18.05865688377028    2.99123982362525   17.41779683528953
H        18.76998710058306    3.18369745329858   16.62754547201541
C        16.83571343333324    2.41464334016790   17.13039687674602
H        16.58376375401870    2.14988809791189   16.11397104675989
C        15.92593905087490    2.16587243175841   18.14535489101961
H        14.97771387711640    1.70711495412504   17.90964499875296
C         9.90211057958569   -0.55292561330321   21.63909530839691
C         8.71347331255399   -1.21156902210580   21.32819112112293
H         8.49008199871869   -1.46119251876730   20.29843782783799
C         7.82631472317374   -1.55498003632493   22.32885238525633
H         6.90771675114768   -2.06753850728914   22.08055535630492
C         8.11275200529686   -1.24407755955723   23.64998380700965
H         7.41685000516208   -1.51646305761054   24.43030269515237
C         9.28807471490785   -0.58580151005711   23.96309049199898
H         9.51470056993695   -0.34095125933349   24.99074389624105
C        10.17839674596851   -0.23781598662066   22.96088738017765
H        11.09474640947669    0.28655872991692   23.19480373944377
C        10.97506718861777   -1.57341813699469   19.29928910640944
C        11.05542019956498   -2.78197481134933   19.99009202118087
H        11.07960412391025   -2.77596332662472   21.07061658848271
C        11.09655177659368   -3.98292238362842   19.30869098588559
H        11.16398449764243   -4.90820630372001   19.86230290558560
C        11.05404461951371   -3.99733148414873   17.92406495418493
H        11.08862305990184   -4.93533197405049   17.38936004323310
C        10.96687953403556   -2.80309672154884   17.22961412364612
H        10.93307967420592   -2.80577722533144   16.14956693741179
C        10.93162305671468   -1.59712376942159   17.90837560360707
H        10.90207973991093   -0.67903101650199   17.34129357076684
C         9.85298585097846    1.10366512644055   19.39819310691633
H         9.77270661752653    0.77124020659123   18.36038408249760
H         8.87163886998478    0.97708775286856   19.86602160568034
C        10.30488342486624    2.56319023914425   19.44757733153500
H         9.48076842519371    3.25042628707296   19.66866854673132
H        10.73730467170714    2.85635038376277   18.48421370929217
C        12.17994221020783    4.49314557110208   20.10068514491746
C        12.97008382751580    4.51274996235314   18.95426016463303
H        13.28007990579187    3.57466806176545   18.50882380383488
C        13.35590316254896    5.71430989759038   18.39203367881116
H        13.96408128354479    5.72186066724375   17.49868014975996
C        12.96807896708813    6.90641422090109   18.98233826644129
H        13.27231687495831    7.84857171412144   18.54968757076255
C        12.18903352476854    6.89081099903212   20.12725904593729
H        11.88654941099210    7.82084557314574   20.58688252419162
C        11.78625383835143    5.69019423582918   20.68511131297295
H        11.16860119051851    5.68606690465097   21.57178235773547
C        10.80613552309210    3.17747250988041   22.23228726310895
C         9.49519851504408    2.79831294254450   22.49323002780691
H         8.89784414275627    2.31778880237472   21.73260650862341
C         8.94234244846625    3.02925480032211   23.74135794574498
H         7.92292703753854    2.72843285437580   23.93736863365862
C         9.69015055474600    3.63602870459818   24.73541338615432
H         9.25412404423313    3.81410612046337   25.70778526211853
C        11.00351951473980    4.00474946784761   24.48527305081859
H        11.59468079293705    4.46654939675227   25.26270543077587
C        11.56069694737237    3.76753057304917   23.24456854340053
H        12.58743350276066    4.03785360119582   23.03963170761172
C        13.19799116882919    1.03411675544009   22.63805264532086
C        13.28736488312539    1.03387262199298   23.85083876110312
C        13.37526331300249    1.05666351516244   25.26006225719413
C        12.23737028110946    1.29922933468048   26.03870164329938
H        11.28770285270477    1.45031511805632   25.54547003656624
C        12.32675127183068    1.35966478033457   27.40982158178716
H        11.44652670525836    1.55455379037718   28.00704607980771
C        13.55647605870112    1.16904236280157   28.04919597449816
C        14.69201683171918    0.90771686349340   27.27606880126670
H        15.64250306853099    0.75482714331708   27.76838558266321
C        14.60212295276099    0.85475995624792   25.90399649408286
H        15.48690130539498    0.65574341141033   25.31246432340620
C        13.65139380096843    1.24721708048504   29.45161685171268
C        13.73702773793397    1.32422466028254   30.65515562541512
C        13.83366894577754    1.42786515141416   32.05664863907124
C        14.94154580951587    0.89503842869323   32.72414727808955
H        15.70998548726363    0.40086308275096   32.14691561200742
C        15.05569799072669    0.99414970514549   34.09725457520214
H        15.91362790969821    0.57856852525564   34.60532432491659
C        14.05388545583736    1.63687631961502   34.80841547667877
C        13.90913976703547    1.89262186464406   36.23030720951836
C        14.72689941133513    1.56461217765215   37.29898144600505
H        15.65104672751881    1.02751475607630   37.14373496933327
C        14.33526401744823    1.93972742138943   38.57403366120869
H        14.95983838571360    1.69256292947366   39.42046854483876
C        13.14999050672795    2.62909685495055   38.77755092762930
H        12.86241061881436    2.91196681671664   39.77991345228528
C        12.32799563087365    2.96060702265332   37.70812388202244
H        11.40631536861975    3.49849291699968   37.87839436568835
C        12.70983570180759    2.59143216703505   36.43664369166063
C        11.99915974967492    2.83323331293292   35.12582037368597
C        12.93993893281977    2.17569669020059   34.14353039071349
C        12.82085762291495    2.07373885357026   32.77885574074065
H        11.97082644806526    2.48280185569508   32.25155161512397
C        11.85709844659935    4.33909446303922   34.83633415241164
H        11.36814348847513    4.46637648625497   33.86749693917444
H        11.21038932659788    4.78372047038863   35.59661362474475
C        13.19593965335400    5.07285993066571   34.82414176856560
H        13.84055110216234    4.64054819577010   34.05538366506621
H        13.69338664830325    4.93694517391304   35.78731808755071
C        13.01976596549052    6.56466620574128   34.55284629171631
H        12.51768171520865    6.70034400176054   33.59187835825945
H        12.38029145029038    6.99957462163496   35.32481110765720
C        14.35619684178625    7.29571193043696   34.53239738410286
H        14.86439882321915    7.18591463084251   35.48797243710802
H        14.21158075742452    8.35638769792800   34.33953505912513
H        14.99975194154081    6.88926956652960   33.75518688890413
C        10.60779299588174    2.17531411830264   35.11049150446492
H         9.98345130311478    2.67613287747354   35.85191431444837
H        10.15539079727554    2.33135294504818   34.12820379569619
C        10.66047341248982    0.67820097618244   35.40747012736048
H        11.07415881166392    0.52059432582328   36.40626622669755
H        11.33444788118457    0.20034436032329   34.69217098642738
C         9.29076057308202    0.00532645146586   35.31644858763175
H         8.85194743893413    0.20954995789992   34.33685854750311
H         9.43124492369517   -1.07532752085353   35.39505307995727
C         8.32654443585641    0.45475934547558   36.40841903290960
H         8.77163807931324    0.30841884832968   37.39034899537602
H         7.40555378980422   -0.12217317191872   36.35991900674718
H         8.07121792846342    1.50554058991763   36.29860997269591

