166
CSD_code = CICLIM | q = 0 | S = 0 | Stoichiometry = C83H77ClP4Ru | MND = 6
Ru        5.25466199542386    7.78924773271108   13.31772443595552
Cl        6.86149226419208    6.26968232401758   14.31043197878216
P         5.73186725667222    7.11619146243242   11.18782625920860
P         3.71108818572017    6.09023508077073   13.21949242632134
P         6.99281984157144    9.30790617461273   13.46499134423690
P         4.78780027710667    8.55059899500688   15.44902591751161
C         7.18807994613870    6.05696147200249   10.91408619292351
C         7.20689505938717    4.80503639089495   11.52475928654931
H         6.34808232125429    4.46922168315419   12.09023637485471
C         8.32386735641365    3.99838420679476   11.43276778755584
H         8.32824176657429    3.03305419329665   11.91807906817652
C         9.43626806550401    4.43393545446041   10.73129373345341
H        10.31090571883157    3.80380850642735   10.65803427568274
C         9.42933461638677    5.68293723798335   10.13419061330836
H        10.29783634337112    6.03077748513079    9.59349772660651
C         8.31780187448871    6.49973175405359   10.23448073562864
H         8.33115367391293    7.48207678436057    9.78357126959234
C         5.93786028069127    8.31580030406711    9.83171048595770
C         6.03786926979983    9.67214116993042   10.09884371390044
H         5.95871318488634   10.00802114474864   11.12455235430678
C         6.19973416815957   10.58287817769236    9.06833800899766
H         6.26306659167206   11.63901956046403    9.28842930149345
C         6.25873936885665   10.14128911232369    7.75798188625582
H         6.36481296876287   10.85050158455198    6.95120909419919
C         6.17285840986414    8.78435499702919    7.48534431187991
H         6.22836005914641    8.43153313930566    6.46499810350412
C         6.01906534947265    7.87362047361852    8.51290408384248
H         5.97401573296210    6.81457671563101    8.29473069690286
C         4.35411881305637    6.04324617591974   10.51483483575348
H         4.05238525561681    6.43887724683958    9.54050285389740
H         4.76822431501322    5.04016097981971   10.36851341459581
C         3.15571523647631    6.00746754041503   11.45876337469655
H         2.52048443651701    5.13071436150412   11.29512571122069
H         2.54316295983489    6.90466615552750   11.31646875434010
C         2.09937415120270    6.17880085229676   14.06792256487381
C         1.53051431464402    5.12077059738717   14.76756925738175
H         2.02897970659345    4.16320183831312   14.81148210923210
C         0.32278943919931    5.29591031742797   15.42097976274050
H        -0.11334386518920    4.47054389528114   15.96549116390138
C        -0.32344359780580    6.51995183366542   15.38589002003761
H        -1.25947558136426    6.65252965919726   15.90869830960932
C         0.23434699911711    7.57431416651599   14.67978774989447
H        -0.26510081626311    8.53205087259433   14.65068496523607
C         1.43754494407280    7.40291243874315   14.02340097962916
H         1.89032328474238    8.21562668887342   13.47270656414990
C         4.20933544006920    4.38143464742500   13.61572363550755
C         4.65590038963884    4.16546093313917   14.91823705147123
H         4.66618877407591    4.99196655807804   15.61240253739764
C         5.08635718894885    2.91562037121924   15.31768721566760
H         5.43500596078603    2.76801834710519   16.32923504861779
C         5.07861907604112    1.86189772770407   14.41823428824970
H         5.42308288503188    0.88428086997927   14.72286557335851
C         4.62857601655933    2.06466056612165   13.12487722650949
H         4.61745201667420    1.24476611731014   12.42041231692768
C         4.19591118046325    3.31646774578497   12.72076900593166
H         3.84979230351905    3.44613135426219   11.70556016025076
C         6.81572826115983   11.12475141183804   13.31826725118133
C         7.91416151248009   11.96263418222166   13.49419856996152
H         8.89839171715254   11.53897298723703   13.64484332987886
C         7.75101392475824   13.33438557116857   13.46186292417810
H         8.60764781725742   13.97987265228728   13.59400257506823
C         6.49337109210512   13.88381574184586   13.26263683502601
H         6.37232262255340   14.95702279672481   13.23890925538830
C         5.39721335336863   13.05580547826820   13.09474261254703
H         4.41467206553974   13.47723446605703   12.94046974225839
C         5.55868605633781   11.68154582777552   13.12357237272178
H         4.71136848255418   11.02397212000125   12.98260111068750
C         8.57740427182416    9.02182060041963   12.61309922820165
C         9.42259358735025    7.99721726948600   13.03026565199789
H         9.13842654463311    7.36348525037667   13.85635259673630
C        10.61502136306792    7.76532555257244   12.36961799072155
H        11.26409027258041    6.96969762008105   12.70519699955210
C        10.97472237393203    8.54285528734331   11.28227414388779
H        11.90914085612728    8.36260632747361   10.77050994843352
C        10.12861057580145    9.54989680775636   10.84810307186995
H        10.39632120509120   10.15455899424389    9.99297428136601
C         8.93691922856557    9.78889530032129   11.50632040218607
H         8.28952548867622   10.58341994755856   11.16380543148703
C         7.47847324309213    9.29595077634744   15.25306225037199
H         7.86843664847934    8.30362133504803   15.49040928566345
H         8.25525324938180   10.04528105654709   15.43946562313911
C         6.21536085523267    9.59049496201090   16.04978818803786
H         5.91331101251167   10.63322448622223   15.88198582188209
H         6.35945347211756    9.44142380860375   17.12479538151521
C         4.62353693523378    7.28715936938317   16.75072394050326
C         5.73599162259027    6.70603108060937   17.35165101888487
H         6.72971366051160    7.03589455460063   17.08917278740778
C         5.57336322714838    5.68011980851460   18.26603390185155
H         6.44243840351298    5.23233318761806   18.72610068961363
C         4.30574070144554    5.22155902426844   18.58379293836459
H         4.18325504299185    4.41723249550947   19.29467085047206
C         3.19413852370474    5.79442656143154   17.98605047584150
H         2.20242045200857    5.43987464510734   18.22734725826567
C         3.35023884363416    6.81949147223832   17.07247577743513
H         2.48373832453831    7.26956812281866   16.60699550642469
C         3.45381931070959    9.69003348278172   15.96943572553619
C         3.24573922680104    9.93776138234394   17.32421711829484
H         3.83315946797036    9.41210491822353   18.06467887543233
C         2.28313941094011   10.84359881445407   17.72585357907732
H         2.12386839162065   11.02589841548392   18.77903666209298
C         1.52378372040310   11.51904904004904   16.78300092825013
H         0.77061397162062   12.22494017183902   17.10178699482078
C         1.73750141611696   11.28886431411789   15.43563625398825
H         1.15553805405662   11.82026589007821   14.69607817858894
C         2.70008237370579   10.38034730184230   15.03077978184914
H         2.87219242091803   10.19677879234265   13.98040933722233
C         3.91521975032693    8.89740897543670   12.30374140113688
C         3.12869293932144    9.47570242049671   11.57862710117442
C         2.26678070205804   10.22832616316942   10.74597347252075
C         1.03120541783861   10.70933502396317   11.18981655549557
H         0.69794552108470   10.48004974982808   12.19297118237929
C         0.24252719568417   11.47436501400309   10.34994738121161
H        -0.71294142710116   11.83965396295518   10.70126565188609
C         0.66377963859924   11.79012792236560    9.07001576268699
H         0.05227268351807   12.40248877725231    8.42329244964950
C         1.89240828920800   11.30978120617642    8.61423684593048
C         2.67646069896820   10.51726583520143    9.44686211935750
H         3.62232370398143   10.14061130800232    9.08775981153721
C         2.41215687984182   11.62821117639191    7.34065203145018
C         2.98049293586376   11.87543019644689    6.30347531692076
C         3.70128140967057   12.16160831149200    5.12571736168405
C         3.65273766397264   13.43559138906309    4.55317990562180
H         3.01353784789100   14.18444170487124    4.99850816627007
C         4.42129419365808   13.74261097202774    3.44620753323919
H         4.38660826956721   14.73229034013870    3.01492190706392
C         5.24154164452586   12.76361454389895    2.90704108843094
C         6.16705107433406   12.80588722278575    1.78865387832289
C         6.50523597820085   13.83849248109652    0.92992565412678
H         6.04728284966186   14.81176473759870    1.02789141705891
C         7.44471635597161   13.59781054099157   -0.05965813693622
H         7.72161117740761   14.39087933183106   -0.73928232729094
C         8.03479767954906   12.35017480538269   -0.18862716835868
H         8.76592867635017   12.18343356640217   -0.96642489030927
C         7.69634743521182   11.31169581818809    0.66932970249312
H         8.16104532159430   10.34238123469119    0.55861698222499
C         6.76323231019420   11.54243141196477    1.65660668901426
C         6.22376539416560   10.58537226064759    2.69325672695893
C         5.27437170687404   11.47396683347100    3.46286160712319
C         4.51362644315486   11.16659951601059    4.56468706419629
H         4.53068195002715   10.18327812887681    5.01264588324343
C         5.46972283122115    9.41812253792088    2.02776613314609
H         6.18255442792964    8.82384243609668    1.45096203575465
H         5.05585239584249    8.77605515482625    2.80930094437542
C         4.34204409972158    9.88139614963811    1.10885907930267
H         4.75029025268708   10.53238782034842    0.33223224936674
H         3.62047687540122   10.46578820368062    1.68447850222331
C         3.62742035238879    8.70236151177388    0.45380990672225
H         4.34929569289534    8.11575772995579   -0.11972199231031
H         3.21506392959657    8.05301894856980    1.22990369532367
C         2.50597093840119    9.16491396533103   -0.46760404629416
H         2.90089202047383    9.79921174725744   -1.25833227975267
H         1.76662975452930    9.73546175181345    0.09026981992764
H         2.00882231520860    8.31306506035469   -0.92601095879445
C         7.33743740683552   10.02509539896225    3.59411073434279
H         6.88629456840756    9.35614421131943    4.33068141704792
H         8.02129011231189    9.43085720384182    2.98350138834066
C         8.12527068939268   11.11124721197350    4.32192130060335
H         8.61668807181970   11.75693056189828    3.59034566386700
H         7.43719439800460   11.73508497451641    4.89767184377124
C         9.17133580353489   10.51403233459113    5.26042167146307
H         8.68342507166808    9.83205516271374    5.96145010946916
H         9.88899689000797    9.93226323745306    4.67702077353388
C         9.90927727768456   11.59169036558372    6.04431914231457
H        10.40587890887518   12.28387424855924    5.36778475641532
H        10.66000999144130   11.14687750808075    6.69367136460476
H         9.21337678789832   12.15618604338167    6.66157124812471

