22
CSD_code = CICMIK | q = 0 | S = 0 | Stoichiometry = C10H5CrNO5 | MND = 6
Cr        4.53430395506114    8.14436827191824    0.00002363280875
O         2.23941136249964   10.07301288955331   -0.00023257562659
O         5.61596244724637    9.98916934001753    2.11681181511503
O         2.90195420810086    6.77255409755351    2.12322530899710
N         6.18233738432807    6.75809913916177    0.00008417368872
C         3.12220000892966    9.33241684551566    0.00018975024073
C         5.30075773532499    9.22003354895061    1.32391697390034
C         3.60481153736225    7.20875446694786    1.32603041738628
C         7.45275457763557    7.17793901166428    0.00004124879060
C         8.54300388768179    6.32680240481874   -0.00003614030337
C         8.33028891921051    4.95653523801696   -0.00006245331127
C         7.01799092283676    4.50858304950784   -0.00002489886901
C         5.98984035801606    5.43399778311460    0.00004922173143
H         7.60328364176373    8.25035459206854    0.00004602531729
H         9.54184778156409    6.73364949428935   -0.00006132351419
H         9.15696627681407    4.26348737076423   -0.00010604962827
H         6.79201508581402    3.45398394273796   -0.00004445317281
H         4.95996953925640    5.09916242050365    0.00006609609649
C         5.30096195896372    9.22032592528746   -1.32367685446255
C         3.60483696592985    7.20841295141259   -1.32611653818264
O         5.61589551605411    9.98918939982831   -2.11692857482790
O         2.90210592960621    6.77236781636688   -2.12319480217441

