51
CSD_code = CICMIN | q = 0 | S = 0 | Stoichiometry = C18H18N4O8S2Zn | MND = 4
C         3.39181228521675    4.76259000828538   12.87287734131013
C         1.25939446203819    1.53643023478595    9.76167472411302
C        -0.03061256471952    0.95175661058080    9.29089847694786
C        -0.32460954365851   -0.29741511097599    9.83778394616827
H         0.38127529259478   -0.71763228090397   10.53773780725449
C        -1.47541190056898   -0.98229744943878    9.50156461647250
H        -1.67039743520556   -1.95335635516257    9.93068051064542
C        -2.37802571043841   -0.40700161382544    8.62260674297813
H        -3.28717896429484   -0.92377975471369    8.35521615910267
C        -2.11523898273018    0.84272489554513    8.09799302555626
H        -2.82155117933451    1.31792272467871    7.43376732307642
C        -0.94469848758116    1.54113888057207    8.40046741519364
C        -0.87258888366575    2.89225648331025    7.73931067587771
N         3.36252862375766    4.49848163997581   14.17659199073270
N         4.44530913953381    5.37875559332762   12.35468183694328
O         1.67252535314161    1.27258287310263   10.90038164722168
O         1.94955268052087    2.27622659074812    8.99644240106706
O         0.32355380704729    3.40825731816370    7.46543963404872
H         1.05086723628341    2.89430401762485    7.94006562425904
O        -1.87554775442354    3.47686552384548    7.41763562830590
Zn        3.25393969105473    2.55699397004856   10.61517979830790
S         2.01563268534799    4.41292773310748   11.93688590191964
H         2.57719470153981    3.98726033836627   14.54427650512759
H         4.20781691638885    4.55408128788409   14.72506384202898
H         5.30635817577232    5.40483214395546   12.88496472422511
H         4.52445658442798    5.43538046695898   11.34034590002106
C         3.11778841829432    4.76138173686199    8.35604335803033
C         5.24887715731864    1.53642306054908   11.46830484473902
C         6.53934411044029    0.95206965536098   11.93826911330195
C         6.83307392442494   -0.29700136166499   11.39096182504674
H         6.12656373531887   -0.71725052387899   10.69165921700277
C         7.98429542742415   -0.98179179236578   11.72591347403588
H         8.17900429325655   -1.95274020669438   11.29642104913201
C         8.88762001504633   -0.40652218411927   12.60414597780140
H         9.79711822423509   -0.92316111984446   12.87060488833693
C         8.62501579572782    0.84300262748883   13.12929387287456
H         9.33175062534997    1.31813550405986   13.79311218906698
C         7.45413645449869    1.54141053078552   12.82804929722487
C         7.38269686952785    2.89227584708942   13.48982854703368
N         3.14714655738378    4.49679131948671    7.05241019692182
N         2.06447052418967    5.37815014027643    8.87387586787279
O         4.83481831325606    1.27178668057988   10.33011274353941
O         4.55929906871901    2.27674715619730   12.23356606072377
O         6.18692889920534    3.41011084652963   13.76170717881264
H         5.45926226480222    2.89615576184118   13.28755528494987
O         8.38594167261932    3.47541397058287   13.81338415498989
S         4.49362850429920    4.41145825862704    9.29238401711944
H         3.93215322552709    3.98477213311876    6.68512559681306
H         2.30186834526200    4.55224132786979    6.50389099655602
H         1.20352336497441    5.40471757233131    8.34347508547333
H         1.98531798080046    5.43543628908823    9.88817096368698

