46
CSD_code = CICSOY | q = 0 | S = 0 | Stoichiometry = C18H22ClNO3Ru | MND = 9
Ru        2.87167991858696   13.85581434502258   20.49196370876313
Cl        5.12728768814219   14.39743476738430   20.21390125366266
O         3.00141451121766   14.98811737344785   22.20860462192184
O         1.79985178258987   12.27575918669101   23.29614841982828
O         1.01497702184225   12.14109215400037   26.14980066708894
H         0.07197957595468   11.95018674292401   26.08668029886923
N         2.53795400000670   15.55427216058718   19.43187722123083
C         3.20710953009674   16.25177825129206   22.28609786739153
C         3.47670845254565   16.80171220224520   23.56530386273619
H         3.51640846137855   16.11349895682310   24.39645227737256
C         3.71079680586980   18.13885303019243   23.73761330936086
H         3.93615516107912   18.51912345067828   24.72355200724961
C         3.66736478200968   19.01571056997164   22.65015771475349
H         3.85898287147317   20.06760608688106   22.79458213444899
C         3.37812089429627   18.52401945511595   21.40478970672766
H         3.33674883962345   19.19490029392269   20.55787038842217
C         3.13600571580628   17.15496781073304   21.18185715831434
C         2.78818497262007   16.74555050698821   19.86250351658930
H         2.69428301753370   17.56728239895097   19.14830639408560
C         2.25512768810937   15.40648970031994   18.01838294455224
H         1.48368130756251   14.64255906976110   17.88295134688533
H         1.87310784059850   16.35095956146271   17.60911850787456
C         3.52000119517961   14.99853967827632   17.25281809493314
H         3.95024027933831   14.11310432497139   17.72862811730915
H         4.25606814181333   15.79867176372305   17.34156911042557
C         3.21861263718765   14.72048531990869   15.78711165152249
H         4.12866628907665   14.43812284907286   15.26552961140693
H         2.80648203414785   15.60393245992541   15.30384391868920
H         2.49935142671206   13.91006273063211   15.68602085173611
C         1.92179901812574   12.30432076918270   21.96022481543013
C         3.11738661096851   11.77616307336804   21.42943146861077
H         3.85786005718899   11.39186637012381   22.11879936283497
C         3.30128228691031   11.68593688748559   20.03104805471780
H         4.20605916320255   11.22605118086333   19.64786651573401
C         2.26953116005671   12.05262508094229   19.14622861572923
H         2.35329612848179   11.86000043620225   18.08395677755712
C         1.11091085041135   12.65865068360685   19.68096374490419
H         0.28540889022614   12.91550091298803   19.02355039924789
C         0.92288047659026   12.79150001324064   21.07317924917680
H        -0.02262870113518   13.15529611914778   21.45323947569912
C         0.91465684242584   13.18631879631874   23.92894670835198
H        -0.12404230857467   12.83179010581172   23.84112968327368
H         1.00820908891924   14.17501162152866   23.46367566090943
C         1.31171423585267   13.28852955473219   25.40368897181393
H         2.39376129541058   13.41360227079851   25.46872693886287
H         0.81936206252095   14.17482892174923   25.83120687299052

