78
CSD_code = CICXET | q = 0 | S = 0 | Stoichiometry = C31H40Br2N4Ni | MND = 4
C        12.43909867126705    6.59410473927893   14.54037122686509
C        12.31024920311088    5.41138303295852   15.26565058266329
C        13.06137102173404    5.27294999363402   16.42529477716582
H        12.98915956744224    4.36581876113142   17.00387741129454
C        13.89781924832505    6.28608203409223   16.84867525153709
H        14.47599281735210    6.16317495653564   17.75219936328881
C        13.98804664105289    7.46281808719013   16.13053757156528
H        14.63043644203500    8.25205832005812   16.48402285168933
C        13.25869970426096    7.64638419065464   14.96464920641055
C        11.38688989282887    4.30405930716318   14.81398960339549
H        10.73436122426992    4.68838766335020   14.02208213676490
C        10.49531066363361    3.83266587478506   15.96409859274710
H        11.07012154192322    3.28969267630811   16.70906678181500
H         9.71978186320909    3.16836994586844   15.58852725476524
H        10.02516963375109    4.68546959053255   16.44600370161231
C        12.19715947755180    3.13480824559211   14.24770409622655
H        12.79141563433274    3.44987706895234   13.39227930398785
H        11.53172126603366    2.33557609991984   13.92816329139429
H        12.87167416060876    2.74061773727985   15.00398518432366
C        13.36470547906730    8.93011659619124   14.17572554471333
H        12.43173702198597    9.07841228636218   13.61979794612706
C        14.51486910286334    8.82911038609096   13.16938795959455
H        14.58571070110322    9.75142631012772   12.59803029985078
H        14.36304598147248    8.00447444394660   12.47452153893435
H        15.45664328312923    8.66953831558892   13.69105570005286
C        13.54168698924704   10.15899093242724   15.06613322846238
H        12.82157169819541   10.13974138197564   15.87975432840929
H        13.36547407419167   11.05565341562073   14.47674708504871
H        14.54504333507082   10.21439965018204   15.48161939501398
C        10.66067185449987    7.45946796693357   13.03852783645669
C        12.30017802736680    6.25389980281387   12.12371523130997
H        13.18366416060974    5.64959148920983   12.11393287157591
C        11.51983753997306    6.69881535719163   11.11363025835044
H        11.59698929222738    6.56136513179722   10.05509284834762
C         9.59297341240459    8.25600008992428   10.94261705525460
H         9.47687998208654    7.84760743299105    9.93402571995545
H        10.00289764171072    9.28221503623739   10.88803823715918
C         8.18220551150888    8.49478092287334   12.92143908711949
C         7.08270553607239    8.32905883047309   10.98625238207030
H         6.96155076270266    8.21981998836323    9.92864171954843
C         6.17052992839847    8.50909279712317   11.96871954435346
H         5.10257571099523    8.57324024130952   11.93327518248264
C         6.27887131641097    8.73648544157141   14.44462820001414
C         6.06282893244080   10.00841378194782   14.97598908076086
C         5.50456631948443   10.09081104313028   16.24611195121124
H         5.32689836807962   11.05978213677853   16.68444919579127
C         5.19184362836484    8.95168362224167   16.95987237470163
H         4.77534302048338    9.03636599727403   17.95246714140243
C         5.41738059297411    7.70113898508821   16.41526820856244
H         5.17951884701552    6.82116276605109   16.99091405895488
C         5.95370528097565    7.56941014734197   15.14306888963165
C         6.40839217770359   11.26307626672949   14.21169614107932
H         7.00605699192905   11.00231731478150   13.33336383847506
C         7.24368387673057   12.21883732212300   15.06484922337672
H         6.65009305992572   12.67503140366392   15.85303594524490
H         7.65347295426944   13.00636600199490   14.43765067017291
H         8.07455233346809   11.68841106297941   15.52331459222022
C         5.12695303877661   11.94285771888302   13.72315938248842
H         4.55613946938368   11.27731948697446   13.07682085882352
H         5.37675583333799   12.83944954071361   13.16121761498844
H         4.49781237993221   12.22507429926180   14.56450712261680
C         6.23873212135915    6.20834035728351   14.55078222175986
H         6.31465474853026    6.30220369543877   13.46057467791070
C         7.58331563231948    5.70835935083408   15.08407504533901
H         7.53764123366932    5.57953845260972   16.16283974495129
H         8.37604847932932    6.43200289548890   14.86391659928630
H         7.84682383596777    4.75835645384573   14.62452047198856
C         5.13127802640196    5.19508192453084   14.84166895341686
H         5.30015136663368    4.29049591774140   14.26089180050919
H         4.15841943238664    5.60153310374806   14.57253499736636
H         5.11384271615391    4.91838070775821   15.89213642064128
N        11.76321585966818    6.72936119774870   13.28989648618653
N        10.51965544979644    7.43745699769886   11.68850106862111
N         8.31346237204040    8.31601529243758   11.59103176667020
N         6.86231787775016    8.60539270745221   13.14788284531864
Ni        9.52912906922472    8.62642268626973   14.17226674856298
Br       10.18437204155635    8.60644513394756   16.27269181865283
Br       10.03024561393215   10.88580165461065   13.21394465260154

