84
CSD_code = CICXOD | q = 0 | S = 0 | Stoichiometry = C33H46N4Pt | MND = 4
N         2.29397112193427   12.84283697600152   20.11181089113002
C         1.82098416071982   12.06182383611469   19.10773957175570
C        -0.18924359449520   11.41026318134224   16.94285470030869
H        -1.18745017279995   11.84188093382775   16.79249739568332
H        -0.28539209029270   10.68249321413163   17.75624885219700
H         0.03390596237660   10.83294907323052   16.03883927611158
N         2.34020832687327   10.83914998678233   19.35970211886379
C         0.78983551966039   13.58787266838262   15.40624772247098
H         1.69029242137538   13.44744809706949   14.78784340159210
H         0.55962976808179   14.65703557049165   15.36371739284632
H        -0.02222808282193   13.07977072070387   14.87947618635781
C         3.40609573349616   16.61114360190206   17.99629753467546
H         3.89593349675295   17.49933943444693   17.65347657956366
C         3.15627475684491   16.16600346951429   19.24442849982544
H         3.37989923394728   16.59130033500647   20.20140326295004
C         3.10781694243825   12.13299968749261   20.96040450580652
H         3.58537715028651   12.57576424187416   21.81049489081189
N         2.49677809661463   14.97235525625256   19.10112804444012
C         3.12678572347347   10.86778353903311   20.48951845987689
H         3.62823159008736    9.99424303071800   20.85335815162203
C         2.33708843244979   14.64059595399265   17.78941080320747
C         1.25095147815644    8.68357201874778   19.37448584662784
C         1.55529822813790    7.16688511331875   17.53251285076070
H         1.37784378669302    6.20276138124949   17.07888238894446
C         1.02097432246702    7.45410795480718   18.77134881534515
H         0.41465885843918    6.71637627514454   19.27394922253383
C         2.03724703440408    9.61890286981877   18.69604496214978
C         3.88568831082969   15.71641538156335   13.56357910235085
H         4.59366440383800   15.26030063088874   12.89176911993541
C         3.83815297153395   15.32835500623669   14.89494509225248
C         2.90981368349085   15.95795331384305   15.72876958904707
C         1.94098933208893   14.22490395010188   20.20068913844767
H         2.31139515423163   14.64535474147625   21.14147263707030
H         0.84260536468546   14.30742254874463   20.16659328888725
C         1.03006931428104   17.63163270426598   16.14461174128343
H         1.03227648080005   17.15573273613070   17.12932040894561
C         5.90969976151408   14.93209094936359   16.23544281772927
H         5.53920376409836   15.50494013173116   17.08164001930080
H         6.46967323394156   15.60318307087646   15.58624093145671
H         6.59049810823868   14.17147430347432   16.61251502697591
C         2.03761269112317   16.94139501460871   15.25172154590961
C         4.76741903152173   14.27346114171497   15.45281269191968
H         4.18011292828964   13.64851857456765   16.13737981154703
C         3.03507366482108   16.69042505949596   13.07547164960933
H         3.08899446303279   16.97852475662310   12.03593655163739
C         2.11715963629619   17.29283117537666   13.91067186759910
H         1.45614206420431   18.04875656810284   13.51616378998837
C         5.35751986933026   13.37067421418666   14.37126847430723
H         6.08053755451010   13.90953974219669   13.76223488411500
H         4.57402902159214   12.98091455812544   13.72612981277928
H         5.87698623984712   12.53280126530933   14.83177832285375
C         1.40311924006099   19.10680578746606   16.32177400293705
H         1.37605936218892   19.62601303339727   15.36685808396984
H         2.40382126405308   19.21072276471691   16.73628880586178
H         0.70077492875535   19.59188503227536   16.99624650827792
C         2.54801831389026    9.36375088915798   17.41803404359742
C        -0.92291296124493    8.98531212733175   20.54995912730231
H        -1.28507224212461    8.00319527671854   20.25768167796718
H        -1.22062641579343    9.70163943474331   19.78758647953739
H        -1.39627917346070    9.26185520976554   21.48990490603754
C        -0.39039365823407   17.50724754726971   15.58950520471003
H        -0.65448318188492   16.46070239761389   15.46086737374102
H        -0.48818907973745   18.00945367210704   14.63082164212475
H        -1.09706607779693   17.95676900148010   16.28406390652488
C         1.04156333739243    7.99385822325939   21.78239235881933
H         2.12538616838924    7.99014805282441   21.88181677723067
H         0.71914350713593    6.98523199880731   21.53809553176631
H         0.60885829323302    8.26679628714398   22.74265905836192
C         0.60010080666776    8.98774535521859   20.70579078674674
H         0.88955615644186    9.98908235444235   21.03669133981751
C         2.30001774014289    8.11729297683311   16.86019265065517
H         2.68800300629497    7.87747026235871   15.88459355207943
C         3.33624405730661   10.42032329882033   16.68030374814384
H         2.79048550082841   11.38773876506164   16.79957483398485
C         4.74255718329231   10.54258936837283   17.27594051271604
H         5.27379049870551    9.59617750746509   17.17816506183851
H         4.71257268637418   10.80825030759549   18.32983199860675
H         5.30705699080605   11.30881160785002   16.75050538919367
C         3.42837824159048   10.15676138223126   15.17975639221675
H         4.06309931260271    9.29982804472980   14.95934720020005
H         3.85400853503886   11.02563273936633   14.68820963850121
H         2.43766240979277    9.99051422019022   14.76632293919868
Pt        1.18238455550424   12.89903511829371   17.30776335813624
N         2.89867544028199   15.67729999474134   17.12317446469662

