63
CSD_code = CICZOE | q = 0 | S = 0 | Stoichiometry = C29H20BrF10N2Rh | MND = 6
Rh        4.10245461191599    3.32567420278098    9.64201466752221
Br        2.49352282524266    4.25081852926511    8.01472736835666
F        -0.63395050101384    4.68823205518317   10.74908609572715
F        -1.19409153106964    6.59029876023937    8.91394315585105
F         0.71050542187209    8.41281324123390    8.20558422650313
F         3.17617894789006    8.31716463868555    9.38395882277423
F         3.72415810186172    6.40241862683848   11.20963183684206
F         4.65060795231989    0.98463065168052    7.63628285459201
F         4.43812268004060    1.96932776840892    5.11486166539583
F         1.96342817736170    2.34998677261350    4.01375701569250
F        -0.26709835992574    1.70662414357495    5.44288435983657
F        -0.02458673036409    0.68153284425323    7.94741710664867
N         1.95700198860282    1.26571452627347   10.21707334366468
N         1.72169912655957    3.05860083244998   11.42239017705898
C         2.51962419936413    2.46939892752549   10.49340245868567
C         0.80337252846326    1.08558845556869   10.95392219929104
C        -0.10476030364167    0.04251779052588   11.03266880039308
H        -0.01469330557123   -0.84382089674212   10.42570315229263
C        -1.15725850281553    0.18636294809041   11.91691063102149
H        -1.88664715397139   -0.60400068223480   11.99996196291074
C        -1.30078322747660    1.32876389591360   12.69873779759087
H        -2.13787887124117    1.40254296097211   13.37506091729151
C        -0.40024745289940    2.37437183567589   12.62358895096206
H        -0.53370169428532    3.25892422180128   13.22520453808217
C         0.65504422339878    2.23981997257228   11.73609182709914
C         1.92440396176587    4.37643252781833   11.97501129936463
H         2.97485732520017    4.48855836164211   12.25873798961938
H         1.30014382362883    4.46586199637626   12.86830476485748
C         1.57294302885479    5.47324730273299   10.99514050953588
C         0.32027332040456    5.55522945376112   10.39666009441497
C         0.02194375335644    6.53158583941360    9.45264518930307
C         0.99045504411078    7.46335581918858    9.09295330472447
C         2.24331389498201    7.41591904650324    9.69515167197792
C         2.51769984245349    6.42544842209188   10.62984562326115
C         2.46461380119789    0.31541885539530    9.25647704744003
H         1.90255244611881   -0.61384081420626    9.37357751451695
H         3.52258449117941    0.12469743231256    9.45823286013718
C         2.31878361233500    0.82646575454132    7.84356507933265
C         3.43862756088066    1.16937860229164    7.09717679581898
C         3.33713093731156    1.67633082106161    5.80772930746050
C         2.07825390174832    1.87542023241467    5.24994044059273
C         0.93987170426694    1.54726472948450    5.98142143498016
C         1.07149107771004    1.02548312206647    7.26350918579839
C         5.61885112484075    2.10438462707979   10.52328362486615
H         5.21724504387699    1.11103276568585   10.72490671520973
C         5.25766370462554    3.11863860712281   11.41453867630878
H         4.64136594098328    2.82808307560592   12.26773449991065
C         6.10472173466741    4.34102147607427   11.68174504902677
H         5.53820061735181    5.02567368915832   12.31551198596664
H         6.98949011253383    4.03690968136514   12.25294509256979
C         6.53890216243229    5.08494412369367   10.40306998172847
H         7.54223540075343    4.76983108538055   10.10976045091518
H         6.58042272080436    6.15326714718267   10.61890071704022
C         5.60470970734257    4.86040936843130    9.23630543325569
H         5.03500891320301    5.73487732660523    8.92270885388562
C         5.77926674464767    3.83784334169003    8.33292451291788
H         5.36570906846725    3.95148241095646    7.33118569901101
C         6.89970217218257    2.83203791220550    8.42997853690572
H         6.78943347215835    2.10412619550032    7.62717298714059
H         7.84856013461386    3.35269238694501    8.26089782737173
C         6.94099111127724    2.09738045449757    9.78546353698363
H         7.69522281218641    2.55005085138094   10.43352377365231
H         7.24033062293859    1.06244894538713    9.61279600009905

