106
CSD_code = CIDHAY | q = 0 | S = 0 | Stoichiometry = C46H48B9P2Rh | MND = 8
Rh        5.48233359198194    5.73035941481106    5.82276016662665
P         3.87947808713183    7.07904568367247    6.90770002857376
P         5.35599172397747    3.78198394603340    7.08029607602026
C         6.61756142249817    7.12464438284559    4.24417041970272
C         7.50136061067707    5.90014117798948    4.44687054928293
B         4.98634410363023    6.67510248902363    3.84919552763930
B         6.14044319771991    7.29644294823953    2.61800485878540
B         7.75708558459935    6.74115254620242    2.95944210144192
B         6.53021662829819    4.49681045973293    4.27677755275266
B         4.88884097196351    4.96717802155167    3.70901333101099
B         5.13948934126697    5.90188644969443    2.20659138505412
B         6.83572704523619    5.88033055718237    1.74681817345941
B         7.72308323275694    5.00615976955358    3.02748402924572
B         6.10645552360131    4.45164698522956    2.52280900434402
C         6.96206872432775    8.40246511229388    4.99643375852599
H         6.04719747974167    8.95963983752137    5.22445638835169
H         7.56277945463637    9.05556283237110    4.34945175002998
C         8.64927958318788    5.97318601239165    5.44445377917036
C         7.74012847920896    8.19575150823285    6.26837367773098
C         7.70490432774663    9.18612850135140    7.24432893411777
H         7.10868121620649   10.07015435852531    7.06882161051761
C         8.41468072113487    9.05587686060525    8.42235059160434
H         8.36447640170385    9.83121217272090    9.17312320576456
C         9.19234992900130    7.92843771351731    8.63106212085478
H         9.75618400872868    7.81793609539432    9.54605791704837
C         9.25039691218482    6.94920549591547    7.65876771249357
H         9.86598518072819    6.07393468612580    7.81047359537389
C         8.52504267852697    7.06239000580716    6.47704445808651
C         1.10497160794760    7.61547551894698    7.03211508077060
C        -0.22055743826526    7.35895322451111    6.73523221383787
C        -0.56153532215572    6.27430413161613    5.94197033148702
C         0.43073797615146    5.45354479887166    5.43475488044287
C         1.75830176580276    5.70773811898886    5.73361645888025
C         2.10684399023645    6.77885888916129    6.54403443505030
H         1.36463876130728    8.47527104666312    7.63456949160618
H        -0.99168235941895    8.01078209013700    7.12000576817002
H        -1.59874148849942    6.07954686422099    5.71196180633331
H         0.17222857389576    4.61782094938823    4.80139061920125
H         2.54428847849691    5.09052099399620    5.32007311116884
C         3.17100006343143    9.43948680272255    5.59024834715665
C         3.15860651259082   10.80145436175121    5.35676030737678
C         3.79992240552372   11.66454570327770    6.23022142643219
C         4.44402078434293   11.15177422587481    7.34270298319800
C         4.46655999900749    9.78659947395173    7.57287103646144
C         3.83559200111858    8.90974792644963    6.69669251953863
H         2.65018837149326    8.78054452023902    4.91117040832291
H         2.64260107276074   11.19056207524681    4.49142908933751
H         3.79004755822177   12.72908580472487    6.04922565646659
H         4.93358953833404   11.81767701945320    8.03912758139739
H         4.97070958766118    9.40771187900969    8.44853388702656
C         2.80023402062882    6.82328790575736    9.54564513604401
C         2.90689690565179    6.84961176400244   10.92559943995441
C         4.12958608258422    7.07311131503838   11.53235845141986
C         5.25462238480323    7.26045255108125   10.74737936017769
C         5.14725789302187    7.23794519194557    9.36999441950064
C         3.91778610579491    7.02916185840796    8.74752848346616
H         1.83797223632468    6.63019142456684    9.09745693982982
H         2.02501240174190    6.69339590803241   11.52951355997537
H         4.20718359497464    7.09519790755484   12.60932354653484
H         6.21801162986678    7.42819805115719   11.20744634738401
H         6.03301638147965    7.38022507773599    8.76528143143702
C         4.69648904003331    1.11154602028065    7.55574251028817
C         4.28521087696595   -0.16625776106123    7.23206391057093
C         3.97604812765998   -0.48664550836841    5.91896176279555
C         4.08963912409975    0.47865060773465    4.93536218440689
C         4.50240253467618    1.76214939303570    5.25764438773323
C         4.80483722359099    2.09245127894679    6.57001992709332
H         4.94251202262113    1.35034085758382    8.58114356919583
H         4.20595585938635   -0.91603138758505    8.00597859688965
H         3.65206104629280   -1.48594872479410    5.66795391177585
H         3.85821124489976    0.23667627865978    3.90870502281420
H         4.59970233779082    2.50411615130016    4.48362727848782
C         7.67268983124216    2.19520943349817    7.35114175321089
C         8.93239722040495    1.90562315656798    7.84594725914665
C         9.52422974768169    2.73858621472846    8.77990893708837
C         8.85982544261527    3.88098828433617    9.19623317243828
C         7.61175681091240    4.18460317208334    8.68392759845173
C         6.98936468832575    3.33006709297908    7.77730818406369
H         7.22303514111166    1.53509269984089    6.62391916892716
H         9.45207961898103    1.02362110922799    7.50089709959122
H        10.50283923597906    2.50517828770854    9.17316752959929
H         9.31949407173030    4.54238136006012    9.91670438688403
H         7.12027230752525    5.10275016174430    8.97440490113030
C         4.68017527827110    3.78981531494109    9.88878718371268
C         3.74535938203467    3.72411114208428   10.90819184086078
C         2.39299961134325    3.68447503655891   10.62033761759186
C         1.97281469460284    3.71803764189108    9.30062144998642
C         2.90423687054094    3.78619817581307    8.28430652582945
C         4.26850550346144    3.82238812840110    8.56360406607151
H         5.73036430075991    3.79221425623205   10.13722000604698
H         4.08000071965835    3.69233960385173   11.93495904285271
H         1.67016875007100    3.62160278955543   11.42019263348335
H         0.91923891932151    3.68398900649817    9.06384085959037
H         2.57975469569434    3.79170337188505    7.25350219359943
H         8.75478012023464    5.01161904384067    5.95917727720696
H         9.59140236535510    6.13956626197788    4.90523317161191
H         6.21781139110443    6.08674804919066    7.10016255509687
H         4.13754775060264    7.48373158539792    4.02945035396279
H         5.97016246362897    8.39725501901817    2.23065410226012
H         8.72443835057810    7.40995700468939    2.90726355277738
H         6.91334950743284    3.50241663523686    4.81002397160488
H         3.89770346506289    4.31055073184880    3.74866270325538
H         4.26747847343159    5.97485493435652    1.41664426495124
H         7.18505254373785    5.90302603676289    0.62278409302702
H         8.71508168834449    4.37469512978396    2.95164406034480
H         5.98104136096258    3.42300552264018    1.95760616267020

