124
CSD_code = CIDHEC | q = 0 | S = 0 | Stoichiometry = C46H66B9P2Rh | MND = 6
Rh        1.40417822169478    2.68846670085635    3.91113678274053
P        -0.10241290646706    1.01129799838038    3.82633347647532
P         0.50627605685572    3.96018259743116    5.56660161892335
C         4.68239126547101    1.66593190302429   -3.64256406974373
C         3.86402069220346    2.76674097276111   -3.82560062833423
B         5.09515116405934    3.98422931865022    3.37305731718930
B         4.28454143905926    5.00508279468368    2.16801015628199
B         5.83011118866706    4.30220081598392    1.79044537016317
B         6.03002857762456    2.74475051785662    2.53066712609129
B         4.49668997544118    2.29321021264327    3.25785409752196
B         3.38390225122648    3.74073902093106    2.95781353257531
C         4.52460149217280    4.09621730497772    0.65329403355661
C         5.44727844264107    2.87096637052243    0.86804629754179
B         4.86184838194860    1.67024922748178    1.72091684200199
B         3.10214273664135    2.27582338835330    2.02360170262560
B         3.09703104440005    3.99133061911370    1.30446669846584
C        -2.26133060370812    0.27735339296557    2.11147888816100
C        -2.94480418604120    0.32206347165712    0.90975999833128
C        -2.48327510063428    1.11446748688057   -0.12853526323765
C        -1.33755801795381    1.87273149351308    0.04273672050014
C        -0.65304666193030    1.82972490151704    1.24364639381272
C        -1.09982296271700    1.02496820990989    2.28700395367431
H        -2.64707793105253   -0.32868865316326    2.91973491770458
H        -3.84419057843114   -0.26364226315960    0.78397867125413
H        -3.02093165418570    1.14487349836641   -1.06463755333903
H        -0.97684232898798    2.49981576249986   -0.75881703370357
H         0.23887657836036    2.43088829153275    1.37961237538766
C         0.13728519345126   -1.76032721448766    3.18312924260269
C         0.82680081074012   -2.95976458033373    3.16654168679649
C         2.10265364535491   -3.04175812800011    3.69976900572967
C         2.69412208850370   -1.91544650598506    4.24693012468126
C         2.00742724449944   -0.71594064395315    4.26045222319056
C         0.72312051036696   -0.62672955926360    3.73334148766877
H        -0.85307103758600   -1.70920767145466    2.75671792277824
H         0.36582886647763   -3.83533395196825    2.73260087506196
H         2.63579026895365   -3.98076390538326    3.68226409951419
H         3.69180379327398   -1.96896508990668    4.65589618090287
H         2.47410141661309    0.17188947139981    4.67214213983465
C        -2.61321482921788    1.32110722151401    5.02000323221905
C        -3.57923597663380    1.10451927399435    5.98400699601875
C        -3.35986815431291    0.17523334866033    6.98896083083120
C        -2.17423770191933   -0.53927142219235    7.01713928780830
C        -1.20294110280630   -0.31784938432312    6.05564465606424
C        -1.41333177301588    0.61386322586127    5.04559906901639
H        -2.78985047171438    2.02694840139794    4.22030165353414
H        -4.50765366058333    1.65680586734134    5.95204701826487
H        -4.11423719512106    0.00455265605099    7.74269105907715
H        -2.00532095363275   -1.27333013585222    7.79211228457242
H        -0.27822815810759   -0.87685782159116    6.08346308556295
C         0.18779125820028    3.02235870573104    7.16441305024072
H        -0.75890321472561    2.49652163240864    6.97720964631410
C         0.03175224908530    3.82402266753564    8.45542398675540
H        -0.75754286802710    4.56960232891551    8.35394334272647
H         0.95908422839741    4.34380535966431    8.69785522085480
C        -0.31560374519948    2.88508941467121    9.61010112664914
H        -1.26446623697759    2.38541900363887    9.39899285085435
H        -0.43749574112377    3.46342466301990   10.52876608210124
C         0.77668695178092    1.83726741897114    9.79369227512371
H         1.71780854123527    2.33333964552072   10.04210188762246
H         0.52099754246589    1.17246130897325   10.62129350361294
C         0.94513902258653    1.03217820726770    8.50914771477969
H         1.74066546912722    0.29432574804531    8.63120853695646
H         0.01672227996748    0.49730096448729    8.30105849634824
C         1.27061459680724    1.95404553675297    7.33855847419952
H         1.34154047336400    1.37149702252077    6.41277326172795
H         2.24010977708732    2.42235158415478    7.51195680634627
C        -1.21590627650510    4.57352247391198    5.14396455124462
H        -1.85219350805660    3.71126726557129    5.38126458669053
C        -1.29763538089894    4.80409333703627    3.63199001145009
H        -0.89297858927605    3.92677265679300    3.11306921656369
H        -0.68932248391716    5.66439198568674    3.35011199476518
C        -2.73777150200580    5.05103089498600    3.19541227309395
H        -3.34353323191401    4.16490982126540    3.40049297558923
H        -2.77323631956653    5.23320034999175    2.11953265696788
C        -3.32051345078714    6.24298349602760    3.94908752810718
H        -4.36056841079489    6.40012789576500    3.65594268586636
H        -2.76091540571239    7.14447911708995    3.68931310295518
C        -3.23451284914769    6.01088014069169    5.45446803146535
H        -3.64356436159243    6.87230615757969    5.98731997470099
H        -3.83501025813725    5.13749846311812    5.72086100688909
C        -1.78607694253502    5.78018410245660    5.88706994627936
H        -1.76024051635156    5.61812643702043    6.96512717182488
H        -1.20888227719001    6.67851684110443    5.66788029593690
C         1.42807695536766    5.49888099387614    6.11588478010823
H         0.85432039077567    5.96233721891924    6.92704544987422
C         1.56657912955300    6.50460184383990    4.97060807899341
H         2.08122877917840    6.03981013101010    4.12840613942837
H         0.58394201280523    6.82678556333539    4.62600520100280
C         2.36054046986440    7.73295682275918    5.40914094836611
H         1.83097288657354    8.24490541042558    6.21767551037015
H         2.44442654927559    8.42837481165918    4.57171209104886
C         3.74729306712055    7.32441835964469    5.88999106540462
H         4.28841000045956    6.84522089635099    5.07214427773146
H         4.31152786542270    8.20547822207847    6.20200793443044
C         3.61599776786979    6.34818154220205    7.05228972891582
H         4.60545435602967    6.03869898483478    7.39432094083051
H         3.11306700327544    6.84403710671733    7.88756947595586
C         2.81762635399431    5.11692764269123    6.63117928540156
H         2.73237224738786    4.44724068501968    7.48730441637731
H         3.36561538979457    4.59084544161836    5.84703358715918
C         4.70088182339078    4.76729877043284   -0.70288392726631
H         5.65972734849596    5.29631375121163   -0.76449457310450
H         3.90856886684260    5.50081829591787   -0.86723577884223
C         6.33130479206721    2.57564546127380   -0.33882227547543
H         6.81196468888577    1.60214085193058   -0.22432620454083
H         7.12544727915292    3.32596895241028   -0.43913462645744
C         5.49228326711879    1.58334663503883   -2.52180695518560
H         6.12751982456960    0.72051001656923   -2.37617819687768
H         4.68776897719402    0.86846252819239   -4.37193149855461
C         3.85549882877774    3.78603542394442   -2.88776554937290
C         4.66895165122808    3.71276288228708   -1.76995911860451
C         5.49389845355571    2.60218797210692   -1.58421337845156
H         3.22848285280613    2.83017891691492   -4.69750143409724
H         3.21158195032479    4.64384739223103   -3.02642457397624
H         5.46872196788406    4.45122647204942    4.39147854200959
H         4.13975284880174    6.17432413775839    2.17985477378420
H         6.75105425145430    4.95720502722505    1.45707199620772
H         7.10715587664619    2.33819416894097    2.77390159927870
H         4.35869164888651    1.65837264459689    4.24949481174511
H         2.49849586646028    3.93476541761545    3.81930086727698
H         5.07573744042117    0.55430138386534    1.40660033428432
H         2.12588896788113    1.76602899456902    2.72142361030112
H         2.13890726319769    4.42868062005450    0.76922094584785
H         2.87430381964573    1.85073014996933    0.93981084082011

