56
CSD_code = CIDJAD | q = 0 | S = 0 | Stoichiometry = C20H26ClCuN6S2 | MND = 3
Cu        4.64917263397019    2.30388228655622    9.72049192586958
Cl        6.67698068899004    1.82541755082465   10.56843947357306
S         3.66112416928935    4.27215467683683   10.38978180416260
S         3.75714447384213    0.88126755013193    8.15692320700666
N         4.71655565782588    6.57669146728947   11.14949916399777
H         5.56291094844047    7.09868364478063   11.34854368773952
N         6.21445604389527    4.98601020133708   10.50422115706454
H         6.43465487066974    4.00588021839074   10.28330811237255
N         7.18184841671212    5.88852330585072   10.79376566153418
N         4.83684734603924   -0.90750908527836    6.53849893748872
H         5.68727722348606   -1.35441351061088    6.21255375276423
N         6.31760584951761    0.23237354459879    7.83957758032615
H         6.52011792358646    0.87818114985906    8.61557372874134
N         7.27243050723426   -0.52280455969050    7.25046133059144
C         4.92610425924595    5.33233577088750   10.71500851853160
C         3.43990341583344    7.15798199345258   11.45215851578303
H         3.34647729582443    8.12680981847009   10.95954582415981
H         3.32077048634839    7.29389003823358   12.52989103010065
H         2.66019347709695    6.49069288796648   11.09041718822042
C         8.41988504646809    5.62325294298110   10.60575746175641
C         8.93935400655482    4.34574741937541   10.02220396627419
H         8.73817437463049    3.50238307192954   10.68302480215507
H        10.00485903923300    4.40613836910352    9.82684418849314
H         8.42344255131620    4.14235277801094    9.08277089929112
C         9.35583415735288    6.68694825502078   10.98832567026074
C        10.62216378537182    6.38985177916897   11.48925953105291
H        10.92598528528968    5.36176836013604   11.61714068006028
C        11.48405552969016    7.40528177362784   11.86033465028683
H        12.46004995642821    7.16116909407935   12.25372734217005
C        11.10162565107068    8.72999090378744   11.73148931473508
H        11.78017755142683    9.52034304948660   12.01613501695535
C         9.84326454360087    9.03633114345208   11.23832924659983
H         9.53927852139434   10.06792021810828   11.13692191941613
C         8.97645275753519    8.02486444220018   10.87438105397088
H         7.99821076301902    8.25545097552095   10.48136167500888
C         5.03265888248971    0.01491481321075    7.48301400812304
C         3.57224801850731   -1.29751238231684    5.98486581036491
H         3.57846777756538   -1.16596541856282    4.90150190301738
H         2.79511799201577   -0.67265311802856    6.41952216091575
H         3.36076323865395   -2.34405525706339    6.21401172820655
C         8.52359688723247   -0.36819924071933    7.46918288740514
C         9.14565122857132    0.65289048462656    8.37135152704394
H         9.30572960374134    1.58157683531339    7.82135108072029
H        10.10294550468430    0.29806535574289    8.74294804676880
H         8.50501112360080    0.88027931679913    9.22125567989380
C         9.39953242311062   -1.28477865041765    6.72831773959827
C         8.93357740662355   -2.54474246234923    6.34920723288557
H         7.93165712955601   -2.83282938764141    6.62782245850602
C         9.74484289511830   -3.41734615721294    5.65162919635052
H         9.37181434909097   -4.39171555677873    5.37171107625132
C        11.03682281831801   -3.04659517426456    5.31371944077788
H        11.67302596284676   -3.72914677880977    4.77009449066231
C        11.50807854036274   -1.79626009994789    5.67763312208142
H        12.51272569889797   -1.50028185561696    5.41290088541114
C        10.70064926834538   -0.92253971716232    6.38190429155212
H        11.07909404242383    0.05395092521072    6.64368721495770

