51
CSD_code = CIDMAF | q = 0 | S = 0 | Stoichiometry = C22H16F2HgI2N6O2 | MND = 4
C         7.74220595041668    2.67440939826523   10.71695553016001
H         8.70320044199798    2.69905918085700   11.21017373214063
C         7.55707840451528    3.22320151148660    9.45340771620442
H         8.37307658124354    3.68770566829693    8.91825522665317
C         5.37210470743218    2.61557704901618    9.51371791079729
H         4.39512881588886    2.57871862215794    9.05138900005691
C         5.56536663237063    2.06341999303689   10.77884185641028
C         4.41988600759913    1.40928717783189   11.49872434672706
C         3.95365867353730    0.52553553574470   13.76285407156305
C         4.51585528877488    0.32726165176322   15.02688662368480
C         3.80649167804748   -0.22374248061489   16.07121353891234
H         4.28748637311613   -0.35400685746942   17.02766558272698
C         2.48777613604780   -0.59439989095796   15.86119521800612
H         1.91929985660573   -1.02652097265826   16.66945250496259
C         1.90852279386122   -0.40834526028109   14.61731925213825
H         0.88220467350673   -0.69828396842446   14.45323481468563
C         2.62804233302757    0.14486354090083   13.57274522670545
H         2.17512844376153    0.29090741946478   12.60634649498176
N         6.75093258978230    2.10836505411526   11.37942782004556
N         6.36580303796731    3.20583735569468    8.85876320635278
N         4.74912730171591    1.09719470465615   12.77400320475165
H         5.70493616315783    1.31907392735284   13.04024355127486
O         3.35465462523329    1.21327904154419   10.95409707881062
Hg        5.90682036561395    4.68230610834174    6.71846907299542
I         8.37815387898361    5.44413800393052    6.33932129210798
I         3.35226877316843    5.03319833078728    7.15108844029068
F         5.80749730341281    0.69606115980088   15.21901005400004
C         4.24226224913104    2.14376592837150    2.96095315668234
H         3.27397213491403    1.76775591791454    2.66349079526020
C         4.44560603972189    2.73097739368815    4.20418927576825
H         3.63806884855340    2.83233736780127    4.91522352441902
C         6.62917667013154    3.06540952792874    3.68518075439602
H         7.61288300363792    3.42717884783738    3.95212839521703
C         6.41732546819298    2.47888580779391    2.43822885515077
C         7.55235773431221    2.35598220494375    1.46071180671538
C         7.87153844703692    1.64715940138892   -0.88823048276563
C         7.20313265397669    1.15446830502366   -2.01187348858168
C         7.84828341391030    0.90462881662342   -3.20298876377127
H         7.28512038589517    0.52552731847664   -4.04074634616577
C         9.20931706847404    1.15052537379036   -3.29031835983950
H         9.72838417699707    0.95958087940229   -4.21627282657260
C         9.89391583226408    1.63835646237750   -2.19019064285740
H        10.95362393763363    1.82908335883895   -2.25745936080181
C         9.23866473007000    1.88677693311715   -0.99708435474757
H         9.77293382279331    2.26749254896188   -0.14280072453031
N         5.21889511003002    2.02711305815973    2.08081439420701
N         5.63954744252494    3.20073416537002    4.56112628251407
N         7.13075232743208    1.87369784054921    0.26809134297263
H         6.13960732964482    1.65303505224677    0.21669955962392
O         8.68516446953289    2.66775616465967    1.75837998831774
F         5.87035887232926    0.91967032009359   -1.91295514873867

