33
CSD_code = CIDPIR | q = 0 | S = 0 | Stoichiometry = C15H13NO3W | MND = 9
W         8.82466766098275    4.66572445921121   11.02474084645237
O         7.85504726453414    3.88752010670829    8.15206798023517
N         4.68674010251645    3.21906310563328   13.78384593130506
O        11.20141353300843    4.03821845563916    9.08711283498668
O         7.31059950133180    6.99610613571974    9.58542525755215
C         4.10022623408294    2.72474554649133   14.86261188345928
C         5.81863203789154    3.05156493257489   11.67057143399906
H         5.86697307967697    2.36239314346859   10.82497857464109
H         5.25279922439471    3.94029309692886   11.38120312797816
C         4.99746899431732    1.01684629322474   12.93797023708590
H         5.36409038920637    0.37234644775057   12.15353589152712
C        10.35286179890008    4.32204137978908    9.80964363486949
C         7.49975551525848    4.55709470460082   12.94733839865466
H         6.77137187253466    5.25776399107040   13.33521872241635
C         5.12347714390953    2.39563769142658   12.84034517618650
C         8.20020416761160    4.15810729457144    9.21889873343750
C         3.63190271361605    3.70953684504581   15.88727022107721
H         4.15512478829046    3.54998251515081   16.82892163677872
H         2.56558834047104    3.58836611885462   16.06968053435867
H         3.82433610253700    4.71963756115974   15.53860897289468
C         3.92625451326042    1.35348064779110   15.04319333243668
H         3.44292784411995    0.98028809041955   15.93313355759604
C         8.85324920876274    4.44662831324442   13.35998466663544
H         9.33555187364057    5.06354184574392   14.10777963663886
C         4.38260331358968    0.49102853599294   14.06410345534471
H         4.26311102978604   -0.57745394163530   14.17309552796891
C         9.39434329150410    3.26055980924098   12.79646766738261
H        10.35412543110298    2.82477937610377   13.04774147157767
C         7.91545155288473    6.17817311068883   10.12173736812883
C         8.37281457030452    2.63955947165932   12.03634205388567
H         8.42346574659417    1.64874366302165   11.60114592300970
C         7.19842579656672    3.44231000591778   12.12528564934069
H         9.82619536281037    5.92317124679137   11.35559966015744

