77
CSD_code = CIDRUF | q = 0 | S = 0 | Stoichiometry = C34H34F4N4Ru | MND = 6
Ru        7.26027660325392    8.06759840227681   11.59542784108031
F         9.75080243381818    6.19021724331959   10.32162760298668
F         8.21310351001636    4.26991923824915   15.16706518040784
F         4.54578748268865    6.31024127381932   12.54333574820129
F         5.88281077886022    5.11977962136538    7.41257807133686
N         6.56034678041030    7.83362493569355   13.47868864018527
N         7.94681895896744    8.08934432291281    9.69358862082317
N         8.62585153572117    9.22596844717476   12.31401104377224
N         6.05446562428957    9.49468197745680   11.11461925592323
C         6.96940794505797    6.74210259948562   14.16525962755591
C         7.96009380501764    5.93223908592378   13.46194316806180
C         8.55843159565748    4.76708054775913   13.94343933769665
C         9.51746183390676    4.05874005425126   13.23837929325077
C         9.91608333210311    4.55051132349249   11.99230718066023
C         9.31329219652449    5.71174107457926   11.53122088194758
C         8.33173332896972    6.43638650018676   12.19294318198786
C         6.46336326064722    6.48348743821362   15.43787352674166
H         6.77732047476426    5.60630171157974   15.97571628615660
C         5.54432412925482    7.33110378060419   16.03196981987896
C         5.14985330311722    8.46835454361729   15.31802820653221
C         5.69008723051529    8.65562457336965   14.05838286277511
H         5.39398899105131    9.52367541535587   13.47953238719696
C         4.17001317606508    9.44797908279113   15.88342316480811
H         3.21805843382379    8.95854086036213   16.08563572608040
H         3.99870943460254   10.26532837800434   15.18752161905673
H         4.53695565329867    9.86013437922939   16.82319015917636
C         4.99420880578962    7.03783480130407   17.39084236022586
H         5.42287881942600    6.12218257216992   17.78890640160648
H         3.91153406040256    6.92507285649906   17.34455689132277
H         5.21261334758929    7.85493361560374   18.07816081345892
C        10.12157724299481    2.80376116171591   13.79484850245849
H        11.20109181246826    2.91244161616563   13.89747468214726
H         9.93202068623092    1.96347589124011   13.12761268070369
H         9.70233111855708    2.57267018111764   14.76967222756033
C        10.96075731291848    3.83848486975888   11.18813822977595
H        11.89826862579288    3.78472085968432   11.74159638972410
H        11.13825231412805    4.35478274375942   10.24914269110231
H        10.64201564372519    2.81948949436486   10.97097359393821
C         6.32152250343929    6.40451573520911    9.38532142563428
C         5.58994411506023    5.42654291192425    8.71019999206143
C         4.54616359996225    4.72393596204151    9.28938991945413
C         4.19909099705707    5.02833669831755   10.60858263144675
C         4.93376522069196    6.00670665505910   11.26236864395143
C         6.00251050154964    6.71357261451772   10.72895837050243
C         7.41128331740670    7.19970782975216    8.82652951834323
C         7.89273930756302    7.11538610363080    7.52130582962966
H         7.47589733666139    6.39714780950386    6.83744003190014
C         8.91686710553629    7.93462898615155    7.07851398105811
C         9.44498082817429    8.86412712374534    7.98172898162243
C         8.91966995250590    8.88662315915393    9.26123537612918
H         9.31698024455529    9.59085786297228    9.98401658653560
C        10.54746901447222    9.79749916148309    7.59095032745337
H        11.43292660861158    9.23570042623260    7.29586171729236
H        10.81104019535666   10.44940242918889    8.41995583717723
H        10.24794349203248   10.41346073563124    6.74329525241636
C         9.43844496672410    7.82656107534179    5.68156998816804
H        10.49779675471126    7.57220192717155    5.69176371942117
H         9.33119983016082    8.77586318616631    5.15706292730274
H         8.90154922313078    7.05977980871659    5.12980829594719
C         3.79960634976239    3.67140862888486    8.52493866617590
H         4.19971740681517    3.56663927198992    7.52076754988315
H         2.74304671913831    3.92880191913074    8.45298793609635
H         3.87572458390179    2.70952026541496    9.03100520101324
C         3.07003044339321    4.31354467581176   11.28627942425979
H         2.13915963094593    4.46384259908851   10.73959740703229
H         2.94198461137290    4.67696889128844   12.30181535612967
H         3.26754644708740    3.24256950548340   11.32181529407722
C         9.52653583643731    9.75031148743748   12.81401796983042
C        10.64499639268438   10.40850483890752   13.43654136325672
H        10.91171369095606   11.30634417065437   12.87793106396443
H        11.50180948917619    9.73464150575538   13.45685393269422
H        10.39010760348951   10.68882805795336   14.45898198167678
C         5.22803626299422   10.20815416640338   10.73501923391229
C         4.20227454551089   11.10261474583879   10.26651682924726
H         4.32284247239129   11.27598680034549    9.19686553017678
H         4.26659824252148   12.05682978660600   10.79067180274644
H         3.22059253363119   10.66297300663506   10.44520020606421

