67
CSD_code = CIDZEX | q = 0 | S = 0 | Stoichiometry = C24H36Cl2NNbO3 | MND = 6
Nb        1.16894428695859    1.08659688985518    7.42786384645400
Cl        3.29160270141056    0.16145830991083    6.88442934394284
Cl       -1.05522146472285    1.39942695299979    6.65010804917534
O         1.65597237818386    2.78872619728866    7.79251827417581
O         0.68867942808734   -1.01467418805626    5.95025773475031
O         1.39203257288682    1.56175603234505    4.83545361078037
N         0.84586380808487    0.24676124525006    8.96407127772758
C        -1.69894652229253   -0.79171859663100    9.54984209280520
C        -0.61036213441938   -0.74577545655963   10.57679295187638
C         0.63900133654955   -0.19651531977498   10.21209501080753
C         1.66696858231570   -0.08447425656739   11.17653721150222
C         2.96279043051033    0.54229802672319   10.76446172439495
C         1.43800510387215   -0.54385780767178   12.46002770665659
C         0.21797158720480   -1.10045331423636   12.81058474414646
C        -0.79762563462703   -1.19118830495000   11.87265542667972
C         2.02130218890598    3.88774005920818    8.44407601794927
C         2.80221826577123    6.19712513878240    9.76168026318217
C         1.61771009322016    5.57013522329930   10.10677018918487
C         3.60792887689947    5.66347624114545    8.77359054617776
C         3.23424451341943    4.51253518792258    8.09842682154954
C         1.21058300222671    4.40640609462957    9.47458094481153
C         1.04904861916071   -2.27700005181774    6.48357404392129
C         1.20311741494623   -0.82491543997911    4.64216871502075
C         0.75543377646300    0.53060375577731    4.10687072606630
C         0.99311811761733    2.84623075044689    4.40614314291850
C         5.18884222748711    3.03043691259531    7.77812218801747
C         4.76444956480403    4.87585427025249    6.11217985947924
C         4.12219957920878    3.86498642725737    7.06120381888419
C        -0.08591031890962    3.70791100294161    9.81448949521722
C        -0.49563590969581    3.87084221254289   11.27681582536538
C        -1.18773916968818    4.22164198307588    8.87954017395464
H        -2.01614652173558    0.22349907336742    9.30236186851690
H        -2.55732782550151   -1.35142888690964    9.91256365215726
H        -1.33515014786823   -1.24429085483266    8.62443657430871
H         3.66480277051900    0.57043041874544   11.59376791582078
H         2.78450751549028    1.56343717052417   10.40931460556565
H         3.40431731932675   -0.01935929779846    9.93793072359528
H         2.22286932162994   -0.46308851246144   13.19865822943890
H         0.05645665262195   -1.45664368681125   13.81699820352927
H        -1.75219404319691   -1.61326981705251   12.15369446422947
H         3.10151646102002    7.10047657500936   10.27181769084522
H         1.00597622100911    5.99315382514572   10.88734835911941
H         4.53871359002297    6.14898117275012    8.52510408854579
H         2.13907159880065   -2.37638049454810    6.54850212135630
H         0.64099988462034   -3.07911141972198    5.85663964876000
H         0.62211549565625   -2.32916115675917    7.48597567260446
H         0.81853280110319   -1.61703606861407    3.98246216356898
H         2.30265496848468   -0.86804023109173    4.66419156257711
H         1.03090774119934    0.60770359452759    3.04383100248754
H        -0.33706161510738    0.61993061633075    4.20669726171424
H         1.53681652184124    3.57161915867259    5.01246314548344
H        -0.08571778603315    2.98861040995905    4.54489458379853
H         1.24607879991084    2.99136119658924    3.34877696251531
H         4.71520527719550    2.27191543269779    8.40072746094561
H         5.80615909367760    3.66508849317565    8.41112975921107
H         5.82553503583011    2.52894760207301    7.05269504995236
H         5.25529025215614    4.35330597209103    5.29370307949302
H         5.51412209001187    5.47309234608369    6.62509077259771
H         4.01435341564643    5.54611955841840    5.69593805064333
H         3.51095207509434    3.17640230574048    6.46123821341335
H         0.04529736570644    2.63110247219271    9.62460617246372
H         0.33295297273485    3.62219171599219   11.93546799933907
H        -1.32052825064897    3.19806353982412   11.49849852356508
H        -0.82321075054501    4.88669786103429   11.48564915050649
H        -0.92855370442845    4.01691974056079    7.84083125761888
H        -1.31986577060699    5.29561461396636    9.00161841371825
H        -2.12923612748552    3.72366938311252    9.09914381840965

