98
CSD_code = CIFBIF | q = 0 | S = 0 | Stoichiometry = C32H48F12N3NbO2 | MND = 5
Nb        2.22194224070332    3.71305372200473   13.04154881633042
F        -2.16737631488194    3.24013436494531   11.19947702123642
F        -0.94839314552315    3.76954055429938    9.51509352797889
F        -2.27181681412039    5.22813512464336   10.38593761130925
F         1.55619246958194    6.08925455422013   11.72622066344415
F        -0.36228554236181    7.04467359949447   11.46861347662877
F         0.54747698632371    5.97996595439103    9.83774319085774
F         3.39434371461190    4.17988336372219   16.04945055857951
F         5.20569191978396    3.71961378118322   14.99822793514366
F         5.20341671918568    5.25075282324267   16.51822198149947
F         6.44153707828105    5.86227553442693   13.83257539297646
F         5.62744358811785    7.50012545170841   14.96417851919716
F         5.10217288196927    7.25677178312811   12.89616343528257
O         0.62263744848681    3.65696002961828   11.64551992693319
O         3.68273237272589    5.03072649778121   13.33741107315774
N         1.12845584128812    4.10761867926522   14.40829081089862
N         2.30053330610386    1.84083045049871   13.24632725738146
N         3.27105403172574    3.50423342161349   10.75913738658677
C         0.28765533583853    4.46822549904110   15.38931700528308
C        -0.09717331006915    5.82007874050350   15.57247182946596
C        -0.99599957381712    6.15397768321937   16.57141847815966
H        -1.27860813782542    7.19057940225858   16.68954480246574
C        -1.53011437983857    5.19327370699704   17.40963545132706
H        -2.23358647959057    5.47146443967355   18.17935967072381
C        -1.14330399331419    3.87216531735006   17.25637738374683
H        -1.54401096362984    3.11587506265168   17.91623135138867
C        -0.24848843499996    3.49748049627272   16.27333265366537
C         0.20660280960719    2.07874506771333   16.14644881916130
H         0.36089415151384    1.83383476715286   15.09587423327186
H         1.16021161639110    1.96781416541859   16.66459337139589
H        -0.51645184593610    1.39925273588669   16.59163678789544
C         0.45573500763585    6.90703050978925   14.69646945194848
H         1.27854406220309    6.52886270632291   14.09162141704766
H        -0.31731223502397    7.29965065392578   14.03462586024144
H         0.81503609807696    7.73559616020166   15.30623232133977
C         2.33144518889199    0.58766573716561   13.26660554227050
C         1.40013588015102   -0.12433803586900   12.25708303960042
C         3.17656988560465   -0.15252407214127   14.31905079256429
C         1.56653888338425    0.56880969920934   10.89564228885410
H         2.60488533121733    0.52251852893535   10.56987166607145
H         0.94720635144318    0.07324476149076   10.15066166272833
H         1.25633498362572    1.60781166790462   10.96663259060974
C        -0.03450354140520    0.12160387930518   12.75093413047308
H        -0.20510618590587   -0.35698736088433   13.71169139695451
H        -0.20912991915780    1.19354007340797   12.84952322155268
H        -0.74600408483776   -0.28046398818956   12.03321417064884
C         1.60904352511220   -1.62182599593073   12.02398574037729
H         2.57633605047716   -1.81711951229131   11.57051407446952
H         1.51039903410657   -2.21101549396069   12.92848364192457
H         0.84430029479448   -1.96693325287926   11.32954520991846
C         3.96148105257735    0.88606625019296   15.12858770240170
H         3.29426709138521    1.65978037736890   15.50635616276113
H         4.45298844679185    0.40315702967809   15.96997578639412
H         4.72130179756665    1.35292991781355   14.50763938260642
C         4.19317796084829   -1.11612128297789   13.68925145532747
H         3.74820036275618   -2.06741230127381   13.42169689829050
H         4.64685886767001   -0.67575674911696   12.80517438947206
H         4.98561636362087   -1.31344480524902   14.40808295945251
C         2.26603479339063   -0.90804662189162   15.29662252025879
H         1.66755369523026   -1.66780495343723   14.80635098396850
H         2.88209138334176   -1.39980003023516   16.04683939693864
H         1.59932400964612   -0.21405981236010   15.79783846475868
C         4.21539922342809    3.31747029042414    9.93347907348643
C         3.95103662600675    3.36100112788645    8.42137145681770
C         5.60061762878403    3.11893002057331   10.54809983785019
C         2.48266025736854    3.71591460723291    8.12699136218811
H         2.33855491238093    3.75582415149937    7.04947347188796
H         2.21708039603089    4.69602845011102    8.51760815647432
H         1.79337348454706    2.96780614732389    8.51638490691409
C         4.80485400145426    4.43781912989871    7.73790977272435
H         5.86915905849671    4.24613730357836    7.81885741826142
H         4.55414496278328    4.47404183795080    6.67949074021777
H         4.59513318326683    5.41444702444708    8.16931425847062
C         4.20646209393151    1.98034310288673    7.79375198637888
H         5.26127647601650    1.77473140317926    7.65878854651239
H         3.76932891719369    1.19614362733623    8.40844685990526
H         3.73490688690702    1.93985016202133    6.81424838790427
C         6.64359917161648    2.36510932985520    9.71928701430195
H         7.57464775252463    2.34556256795322   10.28351251435784
H         6.33791743045015    1.33544122308523    9.55132702227901
H         6.85832985152438    2.83595354371414    8.76627123875807
C         6.12608715481490    4.52845339528637   10.87114595076285
H         7.02470169956215    4.45535659079318   11.47939397591626
H         6.36466687708709    5.08497362883884    9.96898650157325
H         5.37634932526483    5.08249393497170   11.43107484577971
C         5.45341081911255    2.34463251131153   11.86695045592687
H         6.43497372772366    2.15467794803507   12.29568158002739
H         4.87450856779929    2.91637957263339   12.58920838938472
H         4.95536771352558    1.39153058908040   11.69362616969858
C        -0.30440568237500    4.63211138880412   11.64130340818214
H        -0.76449225609864    4.82921101941957   12.63494662981966
C        -1.43389361656023    4.22257648461412   10.67336317271173
C         0.33419539789321    5.95157253432862   11.15628966443859
C         4.11021677225871    5.72789509034698   14.40407345306928
H         3.35237118263639    6.41958423050257   14.83120696486406
C         4.49711057840827    4.73439683436298   15.51208387199476
C         5.33625582403294    6.58765860798031   14.02776140728682
H         2.37095758851995    3.67881012926669   10.31560478729875

