45
CSD_code = CIFBID | q = 0 | S = 0 | Stoichiometry = C16H26HgSi2 | MND = 2
Hg       -0.39355227061078    0.00021499179881   12.41401960684307
Si        2.00396251936971    2.44506454463367   11.41789915365156
C         0.13777501302621    2.10820664492004   11.21022509260534
C        -0.40363524827785    1.81554235294790    9.88631202202167
H         0.09927511863086    1.20797220064352    9.15282831336844
C        -1.56931505757662    2.49423723496664    9.72538685755759
H        -2.19640142048571    2.49356531348081    8.85103824211414
C        -1.83693342754126    3.24030436129403   10.91548671151025
H        -2.69261988088667    3.87699010244112   11.05758422179925
C        -0.83524093562040    3.01920075061750   11.80604857881660
H        -0.71441212804006    3.47866844279839   12.77266139729778
C         2.41679611903244    2.56001700411688   13.27926690089924
H         3.48254479503600    2.69451275222032   13.43241660231327
H         2.12148086175712    1.65700282892154   13.81175368457705
H         1.91171469492631    3.39883029019900   13.74698916904742
C         2.41402754009991    4.09039247965315   10.54273019560520
H         3.47218520238679    4.32320053373199   10.61068646305450
H         1.86333194734604    4.91522722244355   10.98402548147945
H         2.14961356975215    4.04874183787333    9.49085819642947
C         2.98717883414519    1.00807688268946   10.63343611821822
H         2.84157510807755    0.96810081911965    9.55894296645427
H         2.68624313676045    0.04571504181289   11.04454645837196
H         4.05093913331265    1.12173372220037   10.81465487124781
Si       -2.79486438527861   -2.44520939312777   13.41070556651826
C        -0.92853364461252   -2.10831382353322   13.61760998923280
C        -0.38667148473579   -1.81561939973499   14.94133377007744
H        -0.88925710795517   -1.20790997566828   15.67491888087494
C         0.77890066477599   -2.49454500499427   15.10201807867591
H         1.40616919689428   -2.49400285222426   15.97624226651426
C         1.04607533346248   -3.24073385939974   13.91189057936170
H         1.90156235491314   -3.87766288078350   13.76964513190521
C         0.04419358427215   -3.01950255760741   13.02158728480554
H        -0.07697478553819   -3.47905400183472   12.05506155861270
C        -3.20806163192489   -2.55983768611601   11.54937401838390
H        -4.27386243448436   -2.69416920069708   11.39649617352003
H        -2.91276494288018   -1.65687553118288   11.01675996403186
H        -2.70324026563195   -3.39872603559130   11.08151742426272
C        -3.20491044843272   -4.09037891997613   14.28601365893647
H        -4.26310940462281   -4.32300401639841   14.21823480141481
H        -2.65436433735923   -4.91524754092282   13.84461336110871
H        -2.94026173851089   -4.04862460720634   15.33781125708849
C        -3.77738403177035   -1.00774292775829   14.19521983550443
H        -3.63150264519922   -0.96774654069702   15.26967054417367
H        -3.47636201774499   -0.04543904377985   13.78399557102018
H        -4.84120905225314   -1.12117255629035   14.01428297869357

