69
CSD_code = CIFBOJ | q = 0 | S = 0 | Stoichiometry = C24H42HgSi2 | MND = 2
Hg        6.96236531538169   -0.12919443576231    5.74454404652136
Si        4.06481416170695    0.60185232861815    3.69041393834262
Si        7.16091180093944    1.16361803159316    9.11755344524135
C         5.81582809031296   -0.09966364832645    3.38821034081385
C         5.94132017397153   -1.48048764974740    2.90778687435869
C         6.81839244506816   -1.50103253349543    1.86764402398836
C         7.32544325011719   -0.15818314533687    1.65657911079304
C         6.75345378506370    0.67522087265932    2.56801919170215
C         5.16881321826751   -2.63763712748050    3.45704416707254
H         5.72860711223038   -3.56329229836090    3.33784814797360
H         4.21580675265600   -2.75214712223267    2.93755319954358
H         4.96404016941498   -2.49943442775432    4.51782721280739
C         7.23356425066140   -2.66253439316693    1.03038974468172
H         6.74210956034303   -3.57684342859082    1.35164498463163
H         8.31296801643669   -2.80795008595444    1.08900678675306
H         6.98058102321781   -2.48560605596518   -0.01545066965403
C         8.30658369857161    0.17553138925425    0.58504579438670
H         8.57621624679755    1.22786910807958    0.60952933203050
H         7.88738316783286   -0.04886804797065   -0.39637291869522
H         9.21316285330628   -0.41962815222003    0.70068575725982
C         6.97301807972514    2.14895310077327    2.70084073042752
H         7.98470543059469    2.41446353522037    2.40012726030747
H         6.82945831725048    2.47243391928086    3.73099495911411
H         6.27833437628832    2.70515836672357    2.06907786593021
C         4.07310520347712    2.36398132512332    4.43413860313630
H         3.06770111408769    2.63976304714225    4.73633677409946
H         4.41375489887569    3.10856492336685    3.72456582376080
H         4.70470385363628    2.42949573002913    5.31724741448260
C         3.04040047373785   -0.44838643055879    4.91876742871587
H         2.15208329596135    0.09778210699183    5.21999662817216
H         3.59998684929344   -0.67901486086900    5.82286585408236
H         2.71322488855832   -1.38506462745676    4.48322307522961
C         3.18564065005939    0.63409270356733    1.99403735412706
H         2.17480982546606    1.02212358828560    2.07498526946250
H         3.12679487381373   -0.36219806424621    1.56693435794778
H         3.72590778738566    1.25671565522533    1.28763567927514
C         8.24287112845543    0.02752309972553    8.02740171050982
C         9.58043371054892    0.48943430203224    7.63989935374220
C        10.46893477370338   -0.51776178976687    7.85996522428482
C         9.75014902707755   -1.67521257549756    8.35844385271942
C         8.42665855054541   -1.36908038900464    8.43805377167293
C         9.88776023364690    1.86723666629817    7.14514363325139
H        10.74852765213573    1.85181917005442    6.47936457220760
H        10.11743300789679    2.53740006998113    7.97540630694836
H         9.04286597665381    2.28143741823430    6.59657502612871
C        11.94568708871659   -0.51016194341766    7.65655466384645
H        12.28479324434903    0.44154446680299    7.25661075016750
H        12.23860536800240   -1.30248655375180    6.96663323391366
H        12.45984334612418   -0.68852166460674    8.60156189317857
C        10.42690808103968   -2.95505542854521    8.71392831907712
H         9.71242355986200   -3.69759913885169    9.05867448609640
H        11.15890720390863   -2.78931243165007    9.50502529695362
H        10.95893088654513   -3.35732337181509    7.85092241434523
C         7.32443604150291   -2.25977566849079    8.91696382541634
H         7.54699918073380   -3.30067726970536    8.68988374340075
H         6.38101778817661   -2.00204273519004    8.43753612174119
H         7.19335987147126   -2.17238704754334    9.99698325378706
C         5.38997590692171    0.48917569722197    9.38126999505786
H         4.77102278260198    1.25077140793760    9.84505609912779
H         5.37375191377481   -0.37973999592172   10.02840281181908
H         4.91488420881837    0.21542116544631    8.44159596770113
C         6.92029876956418    2.91027892298935    8.37532617399004
H         6.14263283412028    3.43810157790286    8.91826422608660
H         6.61599742877482    2.87104574270442    7.33175071927645
H         7.82149234417186    3.50883189727179    8.43534381958571
C         8.03996837208503    1.31155059196940   10.80776984502316
H         7.48316614663791    1.94261275429308   11.49385862692556
H         9.03229016939409    1.73703302951550   10.69478416581649
H         8.15737839161160    0.33746682699249   11.27226850734627

