24
CSD_code = CIFBAV | q = 0 | S = 0 | Stoichiometry = C8H13ClHgSi | MND = 2
C         4.71855007839032   10.65739040294702    4.45938017673056
Cl        4.58675672447716   12.07269665738095    8.55327925923250
Hg        4.48898393418370   12.12293570408398    6.20745083454719
Si        4.48690599883846   11.38223356256583    2.70036088279589
C         6.03481974699954   10.10255193786785    4.80607069404287
H         6.96937202537064   10.57235138663665    4.54841767315853
C         5.86589399595878    8.89078577382811    5.39251981620783
H         6.64341805641233    8.23065037548158    5.73326484843710
C         4.46547058840554    8.59615040233000    5.45669319017262
H         4.05230536826951    7.68548031149511    5.85212294971619
C         3.77266822501974    9.62667013315361    4.90978487055802
H         2.70933469018317    9.67593559683481    4.74392047703238
C         4.70750385849049    9.95005048182839    1.46200764329816
H         5.69030156916169    9.49868508601268    1.55800066236422
H         4.59691998208859   10.29195707783771    0.43769478528330
H         3.97294144328774    9.16905288734665    1.63320809755383
C         2.73543125128804   12.12989787782649    2.58376634952506
H         2.60246944995872   12.66429142156830    1.64897663872475
H         2.54706708992071   12.83244435532346    3.39382314857386
H         1.97102334436340   11.36099250224967    2.63044056218782
C         5.80519564548557   12.73525912156848    2.43289644275615
H         5.62795825123276   13.27358827416035    1.50777194465129
H         6.80291455926927   12.31208114409356    2.37703142862571
H         5.79979412292472   13.46256752557345    3.24291662383468

