116
CSD_code = CIFBOL | q = 0 | S = 0 | Stoichiometry = C41H64F5N4NbO | MND = 5
Nb        0.29216823311607    5.63799517828774   12.44308816668861
F         2.87309346973272    6.90721499785354   11.75079040111792
F         4.63388479191468    8.87445250048022   12.53562004253715
F         3.78810722914724   11.48372145494100   12.67345904760426
F         1.20962648232900   12.09336092360174   12.01419203473502
F        -0.52613858356384   10.14199909156572   11.25502361701069
O         0.33384297601015    7.52767076347862   11.14059292559630
N         1.09641899553868    6.40323372562464   13.85750951273531
N         1.34585851850903    4.06625744187440   12.17004521053509
N        -1.47384282491037    5.57456637229889   13.15591924656255
N        -0.76764391475515    5.10975306528342   10.15958028156139
C         1.82676705052457    7.16677199195126   14.67394212055218
C         1.36890647407844    8.45646080497820   15.05659159066347
C         2.20033051891453    9.29539446406810   15.77532873124524
H         1.84416701961222   10.28127716152095   16.04037254930040
C         3.47023909613969    8.89715266444618   16.15565521434399
H         4.11069911519438    9.57106268522162   16.70373049660242
C         3.90710723959879    7.62316114047531   15.83336302591302
H         4.89126353450198    7.30004031471834   16.14232579695888
C         3.11246622500252    6.75280631035923   15.11240835078085
C        -0.01806813641294    8.91091358047006   14.70178630932829
H        -0.45605100407357    8.25436182865382   13.94850973148939
H        -0.64912872564245    8.88531219727766   15.59153905598647
H        -0.00887733896776    9.93501476246227   14.33226725739365
C         3.58881158947519    5.36544719967990   14.80164473203095
H         3.10095719632161    4.99721065739311   13.89895994759506
H         4.66864689609714    5.35165765170291   14.66979401769208
H         3.33511764987247    4.69534061497655   15.62542614608253
C         2.07657039901367    3.08361832983465   11.91969573412591
C         2.02540481534537    1.83172343092064   12.82678149380417
C         3.06058745162357    3.20470895243794   10.72832649841178
C         1.09255944397473    2.13099487785777   14.00774376888570
H         1.39204541210861    3.04901176357087   14.51312587520385
H         0.06883112597114    2.24503046839681   13.65845599979054
H         1.12495707933159    1.31058710423974   14.72133573502465
C         1.44283935856797    0.61712354742041   12.08708695301622
H         2.17072210268275    0.13436713955025   11.44519417602039
H         1.10923524485227   -0.11781686213355   12.81750466806076
H         0.58374166405017    0.90929300654704   11.48764573911394
C         3.40099876847268    1.49143884703149   13.41026073785048
H         4.11630623751372    1.19595953385037   12.64988721670577
H         3.79764875693504    2.34364466104943   13.95627197159783
H         3.29666041509705    0.65950194442270   14.10493361737239
C         2.44877290092494    4.15216411754893    9.68453514725336
H         2.26126729258249    5.13276101423943   10.11680616674752
H         3.13498888515110    4.27514314445660    8.84821004706263
H         1.51080915732408    3.74616987526273    9.30628635872273
C         4.35655928911847    3.84730808225122   11.24583610198897
H         4.88141625943470    3.19423948527582   11.93536031704448
H         5.01803268473384    4.05816217303493   10.40722893804790
H         4.13646868018102    4.78218830537979   11.75289213465177
C         3.39442385305866    1.90199693862895    9.99731391702796
H         3.91878393493830    1.19142091016767   10.62686325539685
H         2.49712489745104    1.43360306752046    9.60011042337577
H         4.04865799290140    2.13298340283531    9.15717163943113
C        -2.52538206572288    5.74034019332838   13.81029383991280
C        -2.65308421083587    5.07685042558763   15.19758033659357
C        -3.60431752493342    6.66653893667644   13.20571415949521
C        -1.93368519823958    3.72339438797596   15.14967780007450
H        -0.89340255019601    3.87691506416356   14.86608034942275
H        -1.96589233126935    3.24918127770923   16.12770953299747
H        -2.40871424087214    3.06130688305653   14.42779482322581
C        -4.06064291292477    4.82879483226127   15.74060411797656
H        -4.63570806173545    5.74122435155951   15.85613292525763
H        -4.60740959493419    4.13699208869547   15.10544132631595
H        -3.97324512451231    4.37446618804958   16.72675341527814
C        -1.87434484634493    5.98635398410218   16.16248775277516
H        -2.36890351298456    6.94507257297698   16.28809178529346
H        -1.79964489199186    5.50930320420165   17.13772317693958
H        -0.86853972609761    6.15238701783025   15.77544204014518
C        -3.08297949725582    7.21310004811118   11.86856201172690
H        -2.90728376971220    6.39513415085100   11.17130126087729
H        -3.81617616171008    7.89091910389528   11.43470102046585
H        -2.15237140217442    7.76277647898327   12.00335295925695
C        -4.89315122435546    5.88486734797932   12.90570180978284
H        -4.66078444691674    4.91344516351627   12.47289407024914
H        -5.49857523339500    5.73539834908023   13.79192115234690
H        -5.49225076320446    6.44151834604085   12.18687950066218
C        -3.89664059247285    7.86667635988989   14.11099436376878
H        -2.98768814607070    8.43875168337384   14.27901579689593
H        -4.62177655691462    8.51545888771740   13.62240201468678
H        -4.30652591727480    7.57279220582710   15.07173108993673
C        -1.42709983724029    4.50581587900003    9.26350960047339
C        -1.62017150226339    5.17026579988739    7.88869878358478
C        -2.02223849074852    3.14911716093328    9.64649332218944
C        -0.46251320156188    6.14969553509489    7.60704898711621
H        -0.50112125309425    7.03271314206134    8.24344317280890
H         0.50397572574407    5.66203988512669    7.72844860237405
H        -0.53325987839594    6.50121311595420    6.57996225787291
C        -2.91778508000959    5.99567594206532    7.94598534890338
H        -2.90645115152456    6.66978740403323    8.80025893252491
H        -3.00255393948287    6.59624100437432    7.04238156568808
H        -3.79729954286502    5.36353109815164    8.01540409904260
C        -1.67116465287423    4.21274813776338    6.69404414131718
H        -0.73125599443275    3.67469697361922    6.59354450997966
H        -2.48581647343319    3.49978890207260    6.75627921046758
H        -1.82099717571247    4.79346740383256    5.78508530986599
C        -1.89326249396996    2.94076988646917   11.16271153669013
H        -0.84793154706019    2.93263060171005   11.46579254966403
H        -2.39801211063508    3.73527433196034   11.70894394081114
H        -2.34408425853388    1.98893546511138   11.43880148831333
C        -3.51437673964523    3.03543597899115    9.31135106460656
H        -3.71732521786621    3.08625806038554    8.24687671368200
H        -3.88387328556586    2.07615880345023    9.66923664109710
H        -4.07539867998952    3.82031729621329    9.81426321062906
C        -1.23249853319915    2.01696806064851    8.96900854552734
H        -1.42797349021406    1.94934522296595    7.90499640526151
H        -0.16422599607906    2.16018481301506    9.12022188525733
H        -1.51278755592103    1.06683172600204    9.41969129295282
C         1.13509448744608    8.46676659543129   11.48549273735656
C         2.48475327943178    8.21536959523818   11.81640814811643
C         3.37129916102662    9.19098167052903   12.22060250474727
C         2.94348956290283   10.51323993262597   12.28726831548658
C         1.62949925834947   10.82068772632906   11.94723102160436
C         0.75318492590334    9.82595526703339   11.55301772309017
H        -0.40504169072925    6.01229324137086    9.85518180639184

