55
CSD_code = CIFCOM | q = 0 | S = 0 | Stoichiometry = C24H24Cl2IN3Pd | MND = 4
I        10.49682733181335   15.23822566413664   11.68176157092580
Pd       12.34671258257728    9.74902936059695    7.88154013639541
Cl       14.00282947115999   10.90762701334717    6.82915143161975
Cl       13.80022773834862    8.29817172197970    8.79854477652910
N        10.43499757629969    9.18042818369391   10.02911766665614
H         9.80251883830432    8.57369933257897   10.54794043268554
N        10.88939778219778   12.07688982354860    6.59879864768722
N        10.75969322333413    7.45157144274814    8.58970295795758
H        11.35509651308844    7.04987016692483    7.87002380300928
C        11.01860351581943    8.71120567933995    8.92031914174935
C        11.26382072619808   11.07479516858835    7.06560670592808
C         8.58475296759849    6.70603970382519    9.41704575412454
C         7.84699064240387    5.79490078344043   10.16395187701322
H         6.77674451705507    5.91992487652588   10.23588711739609
C        11.28172723203621   13.69673084706819    4.90757862912853
C         8.46622041966886    4.73529534236951   10.79893818979923
H         7.87958247001382    4.03668434303492   11.37574552197386
C        10.51952450614502   13.18032160678959   11.20296719946669
C         9.96772297542047    6.53147500026721    9.33733137860117
C        10.50402952305165   10.51156236588196   10.46286627075266
C        10.57660818169114   13.27346570119736    6.04305650824817
C        11.67920286498307   12.59803512395352   10.72042203721151
H        12.58535916618833   13.17611243623596   10.62754325130658
C         9.83442320414716    4.56081102704814   10.68642570586816
H        10.31265095024393    3.72399321927785   11.17259982901793
C        11.68003481154758   11.26067784272965   10.35977705798033
H        12.62360385335062   10.79125575160828   10.06089785305446
C         9.98908444685874   15.73230283707123    4.96827160344960
H         9.76174729157842   16.70044969637508    4.54828331030155
C        10.60664849990275    5.45169054470692    9.95509565631775
C         9.58407246725152   14.05602917847718    6.64592570881941
C         7.88472562829461    7.82722297253922    8.70393870233427
H         6.98968409545913    7.44782343003098    8.21510223189612
H         8.52392639705759    8.28558871463491    7.95206824832775
H         7.56961636702415    8.60164175803087    9.40427883984830
C         9.30392632121226   15.29256180448270    6.08886486076462
H         8.54756591555668   15.91712164258496    6.54005860226756
C        12.32610428178848   12.82049660363536    4.30179259570524
H        13.03668176174994   12.48268429937884    5.05829011884224
H        12.86329539076693   13.34567953491264    3.51736791663938
H        11.86946454524818   11.92695043968430    3.87411107742541
C         9.36505416635126   11.09861924029439   11.00925754154039
H         8.46526940860582   10.51392928026980   11.13389711673091
C         9.36915536857390   12.42991020768936   11.37867617278254
H         8.47763445812462   12.87991545747411   11.78642873254941
C        10.96510645051757   14.94211421259216    4.38593511959721
H        11.49596444259880   15.29651213258275    3.51510782689628
C        12.08289828895434    5.26736430842376    9.80953610643212
H        12.31236718192389    4.85669505392606    8.82502583996604
H        12.45754134615412    4.57364652948413   10.55676767256570
H        12.62004676647641    6.21162325849275    9.89943001120801
C         8.86561461892427   13.54833317451613    7.85756946160581
H         8.19982445849831   12.72745545444201    7.58770324138809
H         8.27482802169088   14.33865143653964    8.31248513016047
H         9.57574802831281   13.16648726793658    8.59038910158771

