68
CSD_code = CIFHAD | q = 0 | S = 0 | Stoichiometry = C26H28F3N3O6PtS | MND = 4
Pt       -1.12023864068348    0.28593981085169    5.08134621635832
S        -3.05604990486667   -0.87073307069324    5.07755458070532
F        -3.93642132539946    1.65557186255413    1.17785897082451
F        -3.00881842411653    3.54946313844137    1.63349820109755
F        -1.88917019117026    2.01751685074724    0.61501155771584
O         1.52256992576378    1.05579148296934    2.17086645776618
O         4.82489696600051    0.57478349661444    2.76591072022896
O         2.68543882032544   -1.05521064142669    8.51475834620627
O        -3.55199098064141   -1.51018741210995    6.28880044648298
O        -1.69546756474969    0.56319681031285    2.86210833505095
O        -2.68806734654159    2.20094518712184    3.98556496664421
N         0.65980090267073    1.17893460540084    4.80718569013172
N         2.97515414306046    1.04553093783120    4.58137130491313
H         2.90895689539501    1.23584742406425    3.58666937785402
N         1.86232065372575   -0.22210817320123    6.18656545620767
H         2.76526699139031   -0.60718962723785    6.42967754894017
C         1.80631559071096    0.66843318005605    5.17705653832818
C         0.53824288068693    2.27728281891812    3.92666254154177
C        -0.08111145829204    3.42248851937532    4.41492220372683
H        -0.39383209250381    3.43072096198682    5.44969718811311
C        -0.32403587378038    4.50096497028255    3.58447839093638
H        -0.81933100131887    5.37734259919835    3.97002324130591
C         0.04122604766970    4.43344608324309    2.25271439227991
H        -0.16631852754814    5.25930697293174    1.59001689246160
C         0.65607842138393    3.29943246981482    1.74756947911432
H         0.91094921272660    3.25863430488815    0.70079993138946
C         0.91404751582015    2.21545377663289    2.57444584811430
C         1.60292696299596    0.79440230159285    0.78898084317271
H         1.95860802232784   -0.23142407914755    0.70669060262334
H         0.62298602699814    0.88318098089705    0.31421004619972
H         2.31428987545827    1.46578560648351    0.29600085081865
C         4.27690712096329    0.82098754155642    5.03325978156504
C         4.64026254527548    0.89797158046369    6.37098640118925
H         3.89535237197269    1.12881573433040    7.11598230751407
C         5.95908947274559    0.70836729469460    6.75127030814386
H         6.22592715620877    0.76599461151345    7.79479507546416
C         6.92545730356006    0.46044339830028    5.79717304754509
H         7.95399035920490    0.31232311852286    6.08750787890836
C         6.58614293816510    0.41361380616894    4.45259771104890
H         7.35776853889176    0.23195377131029    3.72174977285446
C         5.27055394084019    0.59385926386558    4.05943572238707
C         5.76679442147657    0.40575235625967    1.73514524889774
H         5.19793856301847    0.44563694651201    0.80761517335273
H         6.51279425147811    1.20667260329491    1.73782226136835
H         6.27142895059869   -0.56277474624562    1.80627750160099
C         0.86785130523841   -0.41919019872826    7.16205246142925
C        -0.48605528608642   -0.19035135797631    6.92157912647473
C        -1.37148514229633   -0.36215195279995    7.98211661296619
H        -2.42719141508045   -0.19614512060120    7.83248951963426
C        -0.92526342842275   -0.77596172046373    9.22295520126244
H        -1.62816637318271   -0.90916054021862   10.03089679988157
C         0.41840317383063   -1.03629659457388    9.44724176770847
H         0.74157233529100   -1.36807952128282   10.42079655220027
C         1.32515742181555   -0.85522012168728    8.41877005059119
C         3.20566019420027   -1.49734353296563    9.74445891946249
H         4.27907566956047   -1.59785602221131    9.58896143170898
H         3.02088945679521   -0.77069170646432   10.54170992601397
H         2.78882813539387   -2.46717268905927   10.03211825149560
C        -2.74983250418005   -2.21787123595019    3.88590807898211
H        -2.39143592305313   -1.77393962797800    2.96358688398958
H        -1.99064422070814   -2.86322775261329    4.31677211600811
H        -3.66630106325291   -2.77516193033943    3.72841839562238
C        -4.53807925894069   -0.16547067890135    4.27883097985821
H        -4.38634471802095   -0.09159613280403    3.20918061562691
H        -5.35878626666591   -0.83306069150994    4.51581668837855
H        -4.71660245647886    0.81856108751130    4.69882621001838
C        -2.33498162305183    1.62473239639319    2.96675161672999
C        -2.78659847061562    2.23239421528891    1.59412643486799

