93
CSD_code = CIFHAB | q = 0 | S = 0 | Stoichiometry = C39H50NPRuSi | MND = 9
Ru        2.55106234666709    0.68363857280474    5.08416222848471
H         1.03419983430378    0.75642573031485    5.12622782547690
P         1.90511766597924    0.63314759204907    2.84455233970614
Si        1.88790666170572    2.93697396962959    4.52213044308938
N         4.39572916865380    2.53838144707101    3.15438946683415
C         1.98125878351211    2.45399461885130    2.56473225189028
C         3.40490116164127    2.81154001752057    2.26306473869304
C         3.48061646775054    3.58049426104418    1.14200118631649
H         4.36470856708516    4.00242399705765    0.70041973159388
C         2.16043895229851    3.77793179995876    0.62605951398567
C         1.72759989759329    4.49953819612564   -0.47897573202220
H         2.44111894916600    5.01453172190347   -1.10672441597880
C         0.37337837915629    4.55257110077198   -0.75402530011039
H         0.02041964798568    5.10848150923119   -1.61147415716205
C        -0.53840763263238    3.90961907828848    0.06963531451740
H        -1.59494298048263    3.97538685148974   -0.14732456311024
C        -0.11611688717844    3.18879026349019    1.17981328682866
H        -0.85346363258132    2.72974712137233    1.81726704122501
C         1.23391158993151    3.10513154108426    1.45875601662420
C         2.78240632848524   -1.46130942056775    5.95985884587691
C         1.86104855706226   -0.70220288255457    6.74440620715154
C         2.56561416822222    0.42203587227955    7.30662273915943
C         3.91035475186431    0.35858031289782    6.85070530926416
C         4.03943628404676   -0.80376332142537    6.00557193148912
C         2.52892324163999   -2.83978493506198    5.42687427638543
H         2.82221399533820   -3.57723568682327    6.17853655859669
H         3.10036197895586   -3.03829117086187    4.52198004221895
H         1.47447159057438   -2.99068869278490    5.20448866180892
C         0.51416198779617   -1.18214656712704    7.19942402158127
H         0.00273874337539   -1.74405514822608    6.41982460133430
H        -0.12250034064521   -0.35098951936767    7.49538218078208
H         0.64097061464183   -1.83950676945122    8.06314319881997
C         2.06594663371171    1.28951187052798    8.42335098170101
H         2.21534566626435    0.77732321453678    9.37766029211538
H         1.00511892132919    1.50722736021352    8.31836651269716
H         2.60316006360018    2.23464906549466    8.45582796105615
C         5.05211133195120    1.12877216765361    7.45013711596095
H         4.86474960099135    2.20180906377080    7.44676833459467
H         5.98209952334700    0.94123548949082    6.91714073895246
H         5.19085171466706    0.81440184845863    8.48748038904792
C         5.34136953124729   -1.39959200188898    5.55963001478672
H         5.19345998549561   -2.12768877078332    4.76366814526493
H         5.81015113736992   -1.91402135559394    6.40227292468931
H         6.03730754236573   -0.64114519094891    5.20267970280436
C         2.95750266385670   -0.03447170385726    1.43841020316625
H         3.82343320591433    0.63932503649772    1.45542830407312
C         3.46522511455155   -1.44599179610472    1.72210372049357
H         2.70421993454926   -2.19793322416628    1.53292048543341
H         3.77170289531066   -1.52398523789317    2.76510815540921
H         4.32516396476810   -1.67249832838878    1.09222654542513
C         2.31750706235478    0.09900714733639    0.06102044387305
H         3.06826118467872   -0.09039685631108   -0.70573948061144
H         1.93287567791752    1.10658976412040   -0.08421590413566
H         1.50740824061624   -0.61143206966488   -0.08337479593876
C         0.18126654761142    0.07721434738023    2.38821541585124
H        -0.01354015283615    0.48571558999344    1.38975333651444
C        -0.87551733794241    0.59860664842653    3.35634208937583
H        -1.86657094016525    0.47035641516043    2.92161457767029
H        -0.72813990693972    1.64885919465807    3.59378206888514
H        -0.84162233352377    0.03929989449023    4.28960394713124
C         0.11543106062821   -1.44940992453786    2.36820432446322
H         0.58848982606299   -1.84666586360596    3.26603505867368
H         0.60723705443964   -1.87300376068905    1.49737903395232
H        -0.92348561193900   -1.77703096354937    2.35450953429386
C         4.34533304250758    1.41210720826281    4.04677716469149
H         5.04040844213880    1.67109426486477    4.85784989899461
H         4.77707443451326    0.53055282675118    3.52991196418152
C         5.67354775191770    3.18067841880852    2.97526746801464
H         6.28960966677460    2.68185605877072    2.21495507263124
H         6.21691450162609    3.17248395696928    3.92058776098457
H         5.51866337936937    4.21802258153180    2.67881287598841
C         2.97231821791468    4.48592004538129    4.82219895199231
C         3.13362869450527    5.49192246044416    3.87692181709572
H         2.65504633126069    5.40236257028372    2.91437009475259
C         3.91148130536628    6.60447928929279    4.14494802000691
H         4.02827831135348    7.37323867163924    3.39370355954448
C         4.53997078306103    6.73750413372734    5.37120106240779
H         5.15081851932472    7.60441730126085    5.57968505187104
C         4.37428763382409    5.75417776718889    6.33151706968637
H         4.85309635239670    5.85507756922252    7.29615630147914
C         3.59475690037892    4.64660880269847    6.05318492384181
H         3.45392204429389    3.88553162661093    6.80690692955834
C         0.13988947929375    3.68170683323058    4.81616947751831
C        -0.33435915496846    4.73866538326608    4.04534454710216
H         0.26914113177948    5.11818554123976    3.23564348082728
C        -1.57298590089287    5.30314887696024    4.29206434335430
H        -1.92639530372230    6.11633274010761    3.67421839154506
C        -2.35955045118647    4.82911238231488    5.32817426100833
H        -3.32725218982953    5.26904452942970    5.52294616613460
C        -1.89703376613803    3.78801423237977    6.11512771445426
H        -2.50370553578621    3.41562173773310    6.92904647251641
C        -0.66032984030992    3.22565310084239    5.85658257493802
H        -0.30373342488222    2.40675055765709    6.46421061384616

