55
CSD_code = CIFMUB | q = 0 | S = 0 | Stoichiometry = C20H29ClN2O2Ru | MND = 9
C         4.42488236649248    4.07557042441569    9.99345280422662
H         4.84501081946541    4.83305099218602    9.33429102025902
H         5.23758031248996    3.49185049917321   10.41911615382539
H         3.90823324187803    4.58600980389734   10.80828323384086
C         3.45226415713666    3.19966897784129    9.25802366959031
C         2.51239725369374    3.77954910468439    8.35377319732693
H         2.51054318200885    4.85637176824448    8.21297497118255
C         1.51931221491862    2.98570296064414    7.75641925786854
H         0.77569190588335    3.44936954590768    7.11426073824905
C         1.40464783685938    1.59467896890096    8.05033883287012
C         2.33640212052475    1.03645683274965    8.92709983733041
H         2.27093626539834   -0.01032787935084    9.19535345954997
C         3.35232432841307    1.82592675514985    9.52581182383880
H         4.00784695410508    1.37130679148721   10.26075949729733
C         0.28199420512810    0.78821659534836    7.44488442520276
H        -0.04818979418524    1.30715144283718    6.53784889843406
C         0.73391276373143   -0.61598836386646    7.04255936355215
H        -0.01945167699449   -1.07774905755142    6.40932204304293
H         0.88167802320873   -1.25283507020199    7.91211283847920
H         1.66724285648325   -0.56480112048464    6.48321476208532
C        -0.88922916732378    0.73168115304919    8.43202801861563
H        -1.23533052995279    1.73336314674321    8.68181519106207
H        -0.58893417253747    0.23141902142614    9.35121523867362
H        -1.71664274519640    0.17945375764173    7.99382180191650
C         5.07953886569113    2.84556634279804    6.25805064964060
C         6.34145089814019    4.00348442466833    4.83241530072159
H         6.58773375864940    4.78245217640433    4.14147523805852
C         7.08359731232953    2.97099855388835    5.29262430474705
H         8.09021155942965    2.68180270393628    5.07243807526088
C         4.02349782971839    4.81384340752222    5.14320056205685
H         4.33732583542483    5.83411868220524    5.39223415901949
H         3.18402394740777    4.52124491505239    5.77907888217702
C         3.59418087253390    4.72323950489015    3.68321842299024
H         3.26017087564856    3.70929421247079    3.47852434538557
H         4.41160755084126    4.97758699569211    3.01396349611289
H         2.77064869376874    5.40808091964548    3.50360665996473
C         6.74023846341379    1.11686908240080    6.90421674001866
H         7.68532801380073    0.77299044928632    6.47348846634357
C         5.71083214309798   -0.06974380363264    6.77936285923635
C         6.94055892182809    1.46616600658229    8.39154459043202
H         5.95367789626568    1.73454235650625    8.78949129384403
C         7.87958347647914    2.66094938023685    8.55433086039807
H         8.84984291266384    2.44253172216977    8.11312743137510
H         8.02912447962022    2.87683394764912    9.60994243912434
H         7.47392287133545    3.55159141474149    8.07899759770401
C         7.48217258463566    0.25879888989472    9.15000083221710
H         6.83423042755221   -0.60282141031869    9.01854687365247
H         7.55967283222760    0.48229129847151   10.21216901754532
H         8.47017030837505   -0.00527146560651    8.77996456020139
N         5.11421226793129    3.91269591286730    5.43180013379338
N         6.29528012659511    2.27031241715203    6.16289285157725
O         4.48864852166325    0.21042660953500    6.93681732389908
O         6.15867287523756   -1.18329539423423    6.59331648384299
Cl        2.74165293969627    1.71173266331594    5.03170522819894
Ru        3.48786721637768    2.04339003292084    7.22727324213670

