77
CSD_code = CIFQAM | q = 0 | S = 0 | Stoichiometry = C28H40Br2N2O4Ti | MND = 6
Br        2.85809185502074    3.82709645929990    3.85585982700599
Br        4.24007023005063   -2.47551588861912   -2.58089489153340
C         4.96271252677766    2.47025670447331    2.56899137314530
C         4.69294481487700    3.43200653322943    3.56048392715603
C         5.67630509070535    4.07117392878428    4.28320633175384
H         5.40773005438722    4.79704647852043    5.03528008236813
C         7.00232720397425    3.77004035477632    4.02172081978078
H         7.78623603056918    4.26225246701378    4.57473186535612
C         7.31269181897610    2.83549553766445    3.04607570230546
H         8.34931569245751    2.60218894374576    2.84487792527746
C         6.32589394346378    2.18496213701040    2.32470213673632
C         6.66148775931680    1.13464551342472    1.30439257644135
H         6.38453471210975    0.15239740125391    1.71268010508190
H         7.75181595438963    1.14148084788308    1.12956030718704
C         6.10364900824373    2.62380870440537   -0.54678507258112
H         6.07746459930170    3.33031532006576    0.29335117517685
C         4.93033249084353    2.96302966179853   -1.49085436809613
H         4.96949825284296    2.27082520369298   -2.34230151567372
C         5.09850647527330    4.38764224462362   -2.04746456249594
H         4.28071398730383    4.60639972444327   -2.73693321086773
H         5.06667602811129    5.11509292730046   -1.23506617482620
C         6.43125874185020    4.54302459283256   -2.77071290421653
H         6.51869472022992    5.55797071759687   -3.16278426395449
H         6.48013635726507    3.85231033077432   -3.61555353477277
C         7.57179822136870    4.25199551416140   -1.80385585451427
H         8.53277028411574    4.36975566854850   -2.30794549725665
H         7.54003627279203    4.96124421350338   -0.97367132121475
C         7.44251766882920    2.82735705591284   -1.27726113368182
H         8.26541613572661    2.61460399628639   -0.59194469280537
H         7.51630389354760    2.14466264628009   -2.12495914584650
C         6.39877062572266    0.20769217325985   -0.85204234493481
H         6.01007188342099    0.34202839267170   -1.85993882402494
H         6.03957049757671   -0.74844784573761   -0.47020844972228
H         7.49689451894232    0.16785736491057   -0.90170346171918
C         3.22291724040163    3.84333799905544    0.03444297616886
H         4.04095846126108    4.16405147566665    0.67712289252065
H         2.39698491427259    3.51629615545157    0.66687065740923
H         2.88258879008071    4.70618747688833   -0.55681751547921
C         2.55262592162494    2.50069094556866   -1.78880206876612
H         1.66463065236898    2.22532192376548   -1.20252447547302
H         2.32640406960897    3.42896494034685   -2.34251434562845
C         2.82947792166027    1.40193214390681   -2.77527838139088
C         3.32916538679837    0.17183166781021   -2.28925134371898
C         3.53618983265881   -0.84045330210638   -3.24495109751662
C         3.26357450356165   -0.68374783236375   -4.58612881785596
H         3.43796817080825   -1.49910667787982   -5.27126202842411
C         2.77287150952709    0.53201876024982   -5.03170218863425
H         2.55619150294199    0.67533409955723   -6.07817894436099
C         2.56515606650079    1.56001944606303   -4.12536450684211
H         2.18172739987810    2.50817422270264   -4.47678119740716
C         1.02730891104550    1.13423492887470    1.73773286491268
H         1.08446212923253    2.21774408372969    1.97305099276003
C         1.40667733776832    0.35851232648270    3.00854161811151
H         1.07049956714034   -0.67387377241952    2.93326704044466
H         0.94622674369830    0.81962127724130    3.87982369302116
H         2.49450831341296    0.37267348850517    3.11616308585849
C        -0.41612391667476    0.81083933378688    1.32269814817931
H        -0.70053194718497    1.40699951524479    0.45757804243267
H        -1.10029856973914    1.02313667806390    2.13973712485842
H        -0.48795884520529   -0.24167545653734    1.05455085940594
C         4.48244426828583   -2.77759619446884    2.52222906364745
H         3.87804734072899   -2.46437381863753    3.37166605440260
H         5.52602184630844   -2.56111598308619    2.74316927836761
H         4.36677039598492   -3.84744686342066    2.37137666870437
C         4.03596294922377   -2.01069540845651    1.26807762230447
H         4.68874132982939   -2.31843522647707    0.42440251104482
C         2.59054340629791   -2.37985090932418    0.90003461583396
H         1.96758701864628   -2.39585839735024    1.79239410328969
H         2.56312133687794   -3.36074983072765    0.43003507645858
H         2.20259111637189   -1.62857509632159    0.20702528890043
N         5.93298848642743    1.27644912905607    0.03252894987730
N         3.63672471670774    2.72873336551901   -0.81879619573012
O         3.99645066025848    1.91569458248901    1.90487941558245
O         3.62397963256777   -0.02755078719663   -1.04190168043387
O         1.88966511316951    0.86158244165926    0.68425882317100
O         4.18901857044500   -0.64606296753512    1.47424461940762
Ti        3.62990139403517    0.74879009083270    0.58301977054856

