77
CSD_code = CIFQIU | q = 0 | S = 0 | Stoichiometry = C28H40Br2N2O4Ti | MND = 6
Br        6.73343958487093    2.17545996321160   11.36635234911241
Br        0.48556062528007    3.70384199606694    4.89939299845406
C         4.06484734485235    3.02949908979653   11.08648544763452
C         5.06758130131002    2.78837918913874   12.04425815439863
C         4.88191088201887    2.96753899137855   13.39750034881120
H         5.69125995814747    2.77052115638608   14.08368259434798
C         3.64614825932568    3.39453704355821   13.85337156916951
H         3.48023885891447    3.53709616760751   14.90915811520477
C         2.62745701162990    3.63511156967743   12.94454003577522
H         1.66368237492509    3.96955176450132   13.30341479438937
C         2.81447234277023    3.46491916736233   11.58315725865486
C         1.72571637625069    3.77742602907534   10.59634485109163
H         0.78488453504222    3.95489610096009   11.14657108548809
H         1.99315438890645    4.70169658278835   10.06498819679968
C         0.42384858722274    3.18369980204020    8.71732868675705
H        -0.45516010919441    3.47146343372286    9.31262618979683
H         0.13136617078407    2.39745768861305    8.02352425749143
H         0.74253069255280    4.05113654073346    8.13857648400820
C         1.31506294163294    1.41212604859336   10.16086422673517
H         1.98978447816740    1.34233925829379   11.02434673184061
C        -0.11636558791721    1.18323146850527   10.67627525819110
H        -0.36892195518781    1.95895745819402   11.40188347784900
H        -0.82738602789823    1.24037719268905    9.85084781982410
C        -0.25410093783453   -0.18857606449180   11.32633243323785
H         0.42061719334862   -0.26548182753385   12.18198027566237
H        -1.27426584827049   -0.31957850541042   11.69179033658043
C         0.08312083609078   -1.27026880286966   10.30826263753175
H        -0.02088141873876   -2.25858638471882   10.75981626409898
H        -0.61059335017156   -1.21202387351193    9.46645672614630
C         1.51407093317684   -1.08127787403997    9.81799729098649
H         1.75830011685272   -1.86144205264725    9.09429159960082
H         2.18225176168912   -1.18548232529669   10.67402436113716
C         1.70129353035822    0.29880849752441    9.16386115532213
H         1.01279286751172    0.35422214098278    8.31029822192643
C         4.11651196820918    0.04986627763222    9.51310768507604
H         4.18513949478118   -1.04791556540590    9.51104994428628
H         3.94798782141612    0.38541655394407   10.53495629964544
H         5.07140205937080    0.45165131231227    9.17274393645799
C         3.24684637530854   -0.13479287710190    7.32542757951197
H         3.26429801603583   -1.23183066560433    7.45014579670411
H         4.23099854499154    0.18460345455799    6.95465312804043
C         2.21331992007134    0.22047974542615    6.29452147332314
C         1.62008410172154   -0.74869168941580    5.50320432157793
H         1.88601396206005   -1.78564552279141    5.65646481553648
C         0.70231629675899   -0.42038255550785    4.51758456414569
H         0.25568831152129   -1.19082705528528    3.90970374582560
C         0.35907417215579    0.90602878599501    4.31756953874155
H        -0.35547132300062    1.18871789537057    3.55984057062429
C         0.94121173590137    1.87125866133855    5.10955088944918
C         1.88564257190666    1.58394230547301    6.11277866042308
C         6.30070100338985    2.55450184849526    7.52899391740323
H         6.60549806573450    1.87771391170072    8.35463944379507
C         6.63674862683628    3.99252473374881    7.95452338648517
H         6.65963087368268    4.64573977196905    7.08433983056522
H         7.60689645121807    4.02039952493007    8.44617064884934
H         5.86374051076459    4.34226789909471    8.64422799824032
C         7.09658458970982    2.16548631825397    6.27395468351761
H         6.90383628922701    1.12612642559961    6.01412532931168
H         8.16127934544360    2.29585611411584    6.44686428256626
H         6.78570778711662    2.79243121602843    5.44012637139813
C         3.08268000001529    5.50199705030264    7.14657114101585
H         2.00840113708006    5.41015236611999    6.88317218965455
C         3.90313845660387    5.21000364692811    5.88080777219217
H         4.91540641090129    5.59350589273344    5.99397931841966
H         3.43895990331157    5.68084051818696    5.01669262861069
H         3.94483708296509    4.12748894254701    5.73273466030750
C         3.33524798394872    6.93849691520748    7.62932197765135
H         2.70831755088881    7.16061976820831    8.49044733284666
H         3.11251116267915    7.64769616336289    6.83680694404421
H         4.37693900538566    7.04297945393534    7.92611634889159
N         1.53386137742210    2.74486007128286    9.56413873014579
N         3.05665044638552    0.53001774169058    8.62546042341224
O         4.28927073273475    2.82190864221164    9.82612150528492
O         2.38594779187398    2.53344728292058    6.84110472325851
O         4.94290003223358    2.38625793090760    7.29321095186704
O         3.36885085529127    4.60748748695339    8.16946922082273
Ti        3.52647377952954    2.86773667074926    8.19407305601992

