70
CSD_code = CIFQEP | q = 1 | S = 0 | Stoichiometry = C36H31NPRu(1+) | MND = 9
C        11.68276206165915    9.00464785967623    6.00994021971492
H        10.80254897590619    8.53254695464975    5.59436815152075
C        12.94895101705909    8.39463262820059    6.15118792029685
H        13.18183095929945    7.36168515325003    5.93487101929769
C        13.87386390025324    9.39804502621191    6.52899518292911
H        14.94981219088381    9.28266581284386    6.58249418067381
C        13.18961013683765   10.66025381959167    6.52675466662170
H        13.66435003592390   11.62756351342179    6.60530387445784
C        11.85051803933793   10.41428006750054    6.21439583304153
H        11.10039723007250   11.16825552832999    6.02890334629398
C        11.69080218265631    7.60168777656664    9.05205092179586
C        12.08577958191735    6.31799994295657    9.44502216442251
H        13.12885612924034    6.04271478459031    9.41209539131119
C        11.14209935390431    5.40503968411210    9.87722680122432
H        11.44927896998941    4.41513182290922   10.17821212906192
C         9.78784926076515    5.74839938692139    9.92067122774557
H         9.04702771053993    5.03716035757887   10.24503652729324
C         9.41504141173365    7.01334825833101    9.53595373263855
H         8.39067611281540    7.35620774115918    9.52632375820163
C        10.24192052128831    9.21049922431393    8.66940655841615
H         9.39154675558757    9.40938895646526    8.01928875794863
C        10.79974326790478   10.20452739823879    9.51391849035612
H        11.02558873540707    9.89525007571143   10.54010240147834
C        10.48131795304598   11.63040664080251    9.40157644010536
C         9.76278283638144   12.18601499094673    8.33993739865223
H         9.37401665744412   11.55617585121994    7.55373619024890
C         9.51560648889661   13.54453637786825    8.28769439098418
H         8.95624320936494   13.95364554782786    7.45988395441341
C         9.97499922579163   14.38106934874998    9.29177125988270
H         9.78288561953795   15.44147307795034    9.24413703757294
C        10.66842833720591   13.84376648513208   10.36415686662566
H        11.01546725594145   14.48421303800241   11.16069497889650
C        10.91315603486442   12.48565266629067   10.42183413800379
H        11.44460185073049   12.07023246266216   11.26696284410431
C        13.46539975475932    9.93440537623601   11.47979733401849
C        12.76272794073594    8.90234179891662   12.10199284363411
H        12.52948348256024    8.00811879327851   11.53484525493780
C        12.38103062917319    9.01669737074805   13.42479289477328
H        11.83961761448211    8.21375306088810   13.90183575834019
C        12.69652839691635   10.16354609900770   14.13839834669200
H        12.39786079977511   10.25490960674398   15.17110979080056
C        13.39855195093187   11.18807226689599   13.52658697659643
H        13.65047154154210   12.07780547693088   14.08341338747249
C        13.78437256423852   11.07932844794110   12.20016085006801
H        14.33531547760678   11.88170775981805   11.73154666434250
C        15.17919340729727    8.35005778235732    9.95292589993346
C        16.01902553624299    8.36132029199060   11.06509581110453
H        15.91475276473314    9.13699828439011   11.81064225529729
C        16.98627902856124    7.38420041696989   11.20966165327819
H        17.63581524684111    7.39744329636564   12.07154288459476
C        17.12484389452647    6.39160428801363   10.25162004233293
H        17.88111032223318    5.63089957212363   10.36849325648847
C        16.29321307457690    6.37740502800088    9.14402048533161
H        16.40153930170712    5.60610799882199    8.39605924623997
C        15.32334727499112    7.35354239502141    8.99450813190097
H        14.66821149084915    7.34878879281252    8.13332173871275
C        14.93292204523181   11.12660913165329    9.32645576264622
C        16.29843504178106   11.06559102060577    9.07362619941885
H        16.82413594300038   10.12413030638322    9.14471909708854
C        16.98572457339008   12.21812514328027    8.73033822478289
H        18.04607577896097   12.16818617949827    8.53484289011823
C        16.31986029434510   13.42860959695752    8.63611201295170
H        16.86152939368091   14.32295985107028    8.36944350310541
C        14.95530873501169   13.49098731850805    8.87776287365070
H        14.43199205016300   14.43220071947287    8.79968263648193
C        14.26120377162196   12.34446218088694    9.21324353118698
H        13.19296475224458   12.38242196758287    9.38929077719317
N        10.36390671592926    7.86550719324726    9.13755509624743
P        13.93456720594987    9.66279863928674    9.73909389787825
Ru       12.29012219322071    9.31013828631322    8.12545323412246

