34
CSD_code = CIFSUG | q = 1 | S = 0 | Stoichiometry = C13H10IMoN6O3(1+) | MND = 7
C         5.25286076282385    9.93374353150202    7.54361007003133
C         3.88067912400948   11.82932841537570    7.43244401070327
C         3.42595753975640   11.76845098017473    9.10912118597649
C         0.84698029265348    8.28493107696828    7.06917645783496
H        -0.00180200487930    7.68061432023460    6.72172962691039
C         0.76269900348121    9.31768988626371    4.76523828106598
H        -0.09799784616659    8.77275135475135    4.43442913756648
C         1.54891915070413   10.23805234332648    4.12114748835427
H         1.43926956603563   10.60137996542291    3.12087613329013
C         2.53229142343683   10.60092436561887    5.04945046860944
H         3.34585914376514   11.28984801581995    4.91746577382447
C        -0.73601176016493    9.04870236363627    8.88277950620896
H        -1.55742006539510    8.43276690908493    8.57784792119175
C        -0.60873102906631    9.93239504500463    9.92249835536988
H        -1.34333634090259   10.18328526770065   10.65846299304908
C         0.69552961209828   10.43422306266615    9.82517737576132
H         1.17977481036931   11.14346999215073   10.47183460700257
C         2.04264495651356    6.07017195638372    7.34214114110969
H         1.21667745696859    5.45560115049152    7.04543327594866
C         3.32148519846903    5.74065084944760    7.71567432244337
H         3.74811680155464    4.76183002731699    7.78397075110709
C         3.95009425227451    6.95847160568338    7.99732451285187
H         4.95735980845774    7.12439679420452    8.33761747223932
I         4.16768280654327    9.27915441863823   10.70554559727437
Mo        3.37512587423501   10.06797782053729    8.11169535194337
N         1.27278744519925    9.16891296235412    6.01256393867082
N         2.35571376125346    9.94950344437513    6.18698271256713
N         0.44689646953003    9.05089578215884    8.21890048112292
N         1.32150485711700    9.89851847286564    8.79166252119886
N         1.94743267358842    7.41786958180569    7.41342215169131
N         3.11105088000949    7.96385279219799    7.80954939128086
O         6.33673814321005    9.89832014907755    7.20474410400545
O         4.26045670852749   12.80874612606071    6.94389826588907
O         3.34331052398942   12.70136917069882    9.77908461590518

