34
CSD_code = CIFSOA | q = 1 | S = 0 | Stoichiometry = C13H10IN6O3W(1+) | MND = 7
C        13.91064319882071    9.93960241112120    1.30172988445368
C        12.55711904512057   11.82257022695591    1.12277926729995
C        11.97587302211712   11.84111207513819    2.75672115402294
C         9.44787829133308    8.23293468127857    0.78606242582201
H         8.60465899692832    7.62050835341035    0.44100141666728
C         9.33286460718879    9.27008867740159   -1.51347927108509
H         8.48238467784109    8.70640309587568   -1.83877692553721
C        10.09059001069179   10.21181614339295   -2.16072750904166
H         9.96307425055165   10.57618480002599   -3.15836510119771
C        11.07293544649782   10.59621410365139   -1.23989332344536
H        11.86585762300726   11.30765306477096   -1.37679790937802
C         7.86318538869028    8.97076484324787    2.61074971384641
H         7.05396588245082    8.33562615556950    2.31308523445666
C         7.97588996657014    9.86196381032152    3.64603695963307
H         7.23928260629896   10.09951011200228    4.38430350059572
C         9.26806320532649   10.39263595602677    3.54104727471971
H         9.74118294325114   11.11427488928086    4.18246642278046
C        10.65553141495436    6.02479095301609    1.05934062364899
H         9.83023916674908    5.40918513354921    0.76382359801131
C        11.93359581450562    5.69679143521604    1.43608264880230
H        12.35992715440561    4.71833774918576    1.50832418563974
C        12.56257805485138    6.91513366115623    1.71599576819906
H        13.56836786609589    7.08159639829006    2.06026175525007
I        12.74490595856489    9.26714338589452    4.42465358913620
N         9.85670985926801    9.12668191984581   -0.27136124544522
N        10.92377403165185    9.93604482870713   -0.10215171574428
N         9.04182492728484    8.99361991490892    1.94033141882990
N         9.90128011420225    9.86593791020773    2.50601450977121
N        10.55808137374151    7.37305624919745    1.12454607430439
N        11.72394081101269    7.92101120378715    1.52190367638432
O        15.00420791805722    9.92453370771291    0.98100656272038
O        12.97381331234011   12.77935528103629    0.60448820045228
O        11.82969977449681   12.80019238821522    3.38726136604891
W        11.98817328513194   10.06272448060239    1.84303576937756

