45
CSD_code = CIFTAO | q = 1 | S = 0 | Stoichiometry = C16H18CoN8O2(1+) | MND = 6
Co        2.70970275765644   10.28282970747171    8.48033329850767
N         1.24820737652899   10.96564742022670    7.65013186068206
N         4.20116803205936    9.52764266570084    9.18505901620911
O         2.11283554032170    8.65898914844151    7.69946377416142
O         3.84654861782638   10.59460784019908    6.99269365958847
N         1.90204727611726    9.79181956539242   10.11504870021737
N         5.27697698164947    9.52072117703380    8.42537757150214
N         2.98932273309610   12.05675496158365    9.06386887363659
N         5.96958078502880   10.18176971546824    6.34001352461499
H         5.76373413278812   10.55045686242139    5.42759248061498
H         6.85396827437259    9.74204817334992    6.52118497888299
N         0.52157197897963   10.12471027166764    6.94348176653005
N         0.46837278776496    7.91055400920983    6.34330478377470
H        -0.31881561500302    8.11430990528346    5.75412786105241
H         0.89666222705070    7.00121152130002    6.32134558717430
C         4.09813967820052    8.96542602312726   10.35261750926600
C         2.77566404220871    9.11609464791695   10.90516346113335
C         4.99389785200281   10.10316809444380    7.25212109690957
C         1.05492793946340   12.24878238716444    7.72841723803479
C         3.96166372195030   12.56152877308154    9.81703621049983
H         4.69389593348869   11.86540363914873   10.20238392928122
C         1.06771859797008    8.90281220046459    7.01134185362794
C         2.05046577829535   12.89164906600073    8.54851970033627
C         1.07670413239238    8.79359124981659   12.56869938337275
H         0.74890915064590    8.40614423249776   13.52050753440062
C        -0.05360787960772   12.96415096336828    7.03278907045725
H        -0.64245556254705   12.23777040417201    6.47952550344485
H         0.34386376828850   13.70201352733873    6.33810708730213
H        -0.69413908194255   13.47696209895547    7.74881666996741
C         0.19468743379162    9.48519259397229   11.74589519236733
H        -0.82959668539833    9.64877318500705   12.03626338380991
C         0.65115170495631    9.96318623622058   10.53144883323134
H        -0.01562880182008   10.49970664881890    9.87054062776265
C         5.21312917903221    8.23587231091919   11.02273491943720
H         6.08947571770966    8.27627288951358   10.38174651566936
H         4.94318810778970    7.19444891104977   11.18916624446665
H         5.44925970455982    8.68721548609973   11.98524517519122
C         2.37629019195038    8.60836021950873   12.14514713461951
H         3.08874775082419    8.07378160667911   12.75125754959461
C         4.05999769747093   13.90978616802119   10.10726678384042
H         4.86895294674969   14.26897325551902   10.72111239480098
C         3.10534552669178   14.77843549750241    9.59019799900487
H         3.15738374419781   15.83583635920559    9.79682919221161
C         2.09339630357721   14.26526146866413    8.80582798971462
H         1.33738752087030   14.90572691105215    8.38274607909501

