83
CSD_code = CIFWIZ | q = 0 | S = 0 | Stoichiometry = C39H38Cl2N2ORu | MND = 5
Ru        1.56860885560128   -0.11434183321171    5.04772153715999
Cl        2.90674479657304    1.46009903158753    4.01026437254687
Cl       -0.31523897877459   -1.38236730533256    5.45460825001022
C         2.55577636479654   -1.61962371345807    4.24575148638803
N         3.77284084309584   -2.10497814212011    4.49520041387740
C         4.20059656328132   -3.07489555246324    3.49096251945772
H         4.68670992626496   -3.93294363328369    3.96259803585916
C         2.84212846106091   -3.47756295547478    2.86055841541360
H         2.48040731761493   -4.38799823839541    3.35901680085005
N         2.00450647224593   -2.34672505881988    3.25616814392663
C         5.14643353168409   -2.45902153348421    2.48594257394818
C         6.11800122705933   -3.25025599628422    1.88837591479632
H         6.21647912007261   -4.28711927802926    2.17810109477176
C         6.95331812027456   -2.72263597024270    0.92097445194209
H         7.70391760571071   -3.34811281499504    0.46086518020508
C         6.82815072173089   -1.39604406821555    0.54581252277184
H         7.48219284271386   -0.98324362101386   -0.20783927423568
C         5.86427837870997   -0.60142900445527    1.14122813933792
H         5.76169602646442    0.43493575631683    0.85663296543003
C         5.02246265733324   -1.12985825707739    2.10324993704594
H         4.27285951784533   -0.49665379674288    2.55711379862848
C         2.91268211183257   -3.72767663775145    1.38024395950407
C         3.08662407074405   -5.03011376595490    0.92785466362115
H         3.13889902916730   -5.84133327675283    1.64128015861228
C         3.19859082210430   -5.29755275286121   -0.42395035755969
H         3.33550036930209   -6.31443048689024   -0.76081084511356
C         3.13266074035581   -4.26326158729566   -1.34144240661585
H         3.21761826266192   -4.47017673525614   -2.39767228126699
C         2.95720753941497   -2.96431908733486   -0.89826668828450
H         2.90625875875007   -2.15237269751332   -1.60789674320742
C         2.85134290254122   -2.69498746538391    0.45419296347025
H         2.72355669450012   -1.67663194192883    0.78274101841732
C         4.68046114207550   -1.71291295112371    5.51051190817651
C         4.90824907336903   -2.58201685786132    6.58252134901403
C         5.82097491833342   -2.20103081089781    7.55658615683289
H         6.00231180314692   -2.86135628706316    8.39289625031613
C         6.48277531897077   -0.98821412955152    7.48246646789924
H         7.18308214654252   -0.71051907768335    8.25625721887840
C         6.23469362343103   -0.12977941839508    6.42637672104058
H         6.73607196826128    0.82402803416027    6.37002599547125
C         5.33945837172868   -0.49365361846732    5.43653512677433
H         5.13667738051155    0.17439164274293    4.61588325155207
C         4.15021178577265   -3.86934265622064    6.71280622890043
H         3.13898570353926   -3.75500957848972    6.32594815094898
H         4.09288386875448   -4.16880551279537    7.75647426772216
H         4.64474541348165   -4.67202978159441    6.16435897195626
C         0.80316467384902   -1.98713229891785    2.61346385034638
C        -0.22549380701673   -2.90459302461248    2.37366107685578
C        -1.35829396660114   -2.45774916428529    1.70750130616569
H        -2.16160766954275   -3.15679133606340    1.52487186796465
C        -1.49469059863657   -1.14432573627879    1.29645145720972
H        -2.39108303212385   -0.82830727867794    0.78445238578968
C        -0.48424399202927   -0.23700629697956    1.55745121698548
H        -0.57777581681680    0.79287961861036    1.24587688531775
C         0.66016194936058   -0.65692530467857    2.21213941291171
H         1.48216214209478    0.04053422804018    2.36314410184126
C        -0.16264322313928   -4.31808622155326    2.86273916033801
H         0.51075910834953   -4.91589991618886    2.24817052902961
H        -1.15053994307520   -4.76963594686794    2.82055740775031
H         0.17847764417442   -4.33872726855415    3.89618524285658
C         2.31045359143511   -0.19787002801140    6.78674115057856
H         2.95596713895723   -0.97987445935877    7.18879756275260
C         2.00041497027419    0.84605174717354    7.69089696596069
C         2.60154383438217    0.95997822737973    8.95523955416269
H         3.33649396033163    0.22201280465633    9.24231348375198
C         2.27194820368669    1.99303784501046    9.80409386532864
H         2.74358030773523    2.07114735138172   10.77199173287186
C         1.32977972679897    2.93518597979174    9.41619342863854
H         1.06943241923954    3.74479362487016   10.08128110793212
C         0.71009672326143    2.85290393398645    8.17833790129231
H        -0.01619111928770    3.60322416177563    7.90666848882848
C         1.03902731039546    1.82271177877731    7.31151358125274
O         0.53130828929323    1.63954040894579    6.06875080297144
C        -0.62387100877400    2.35266104442100    5.63193771951400
H        -0.47129889147359    3.42672758287926    5.81529471114178
C        -1.86413235136444    1.84065337857906    6.36042505899511
H        -1.95538088002341    0.76762214261646    6.19712146522645
H        -2.75225384046080    2.33600236110471    5.97768334554643
H        -1.79312808960224    2.02014103382826    7.43094444071229
C        -0.71863805883106    2.09956394471627    4.13342927055802
H         0.19762519990161    2.42777170992269    3.64054003832603
H        -1.55917789839636    2.63985647831630    3.70658881926711
H        -0.86714719698467    1.03080631760045    3.96002081583663

