55
CSD_code = CIFYUO | q = 0 | S = 0 | Stoichiometry = C23H22Cl2N4O2SZn | MND = 4
C        12.10650417077699    4.54276707466738    0.35628211971649
H        12.74986390124825    5.28047881623145    0.82905872989668
H        11.85242530480827    4.89432059243016   -0.64386125710457
H        12.66063110685064    3.61103781466837    0.25029423756080
C        10.86072645387203    4.32254366718882    1.16039991129139
C         9.95737091361672    3.32437958798563    0.77686305452528
H        10.18504382186214    2.72716290017357   -0.09435649545857
C         8.79690998470077    3.08552137255303    1.47747464143822
H         8.10460766615889    2.31381450582879    1.18198088787481
C         8.51707129023366    3.86100715159246    2.59900363982366
C         9.42607254371053    4.86801974265237    2.98750305577517
C        10.58955151074080    5.09845809305981    2.27442216970595
H        11.27337817018454    5.87225650282307    2.58891213569611
C         7.45011447969108    4.60130746648690    4.35322243356874
C         6.49126809273972    5.59657028596695    6.30829424296196
C         5.37874271447970    5.41597100307500    7.33664317846687
H         5.17791678612508    6.38009948639496    7.81983812501793
H         4.47964112615489    5.06477560494668    6.82626866145449
C         4.62396409507480    4.05585907081045    9.16275852102070
H         3.77302045037077    3.87326819084495    8.49622285283142
H         4.36083731036832    4.87189179880439    9.84653093719137
C         4.84660918869834    2.78738775374424    9.93360402555058
C         4.21905741831790    2.56166519578354   11.15348716644327
H         3.57663831083167    3.31910193636140   11.57368385889004
C         4.43359971414295    1.36332974297883   11.80946165596645
H         3.95841088870383    1.16533092666701   12.75845972571227
C         5.27289886157676    0.42241555851470   11.22979172978981
H         5.47459138123528   -0.51993995485113   11.71239670087048
C         5.84701888045403    0.71786881241733   10.00767916734273
H         6.50727327919978    0.02309091269848    9.50781357892613
C         6.92484209663724    4.84966904142761    9.14470595048220
H         7.20339080174706    4.01639169845378    9.79275019745286
H         7.75291286181532    5.04364931834689    8.46089549780427
C         6.68622600949950    6.07216332318118    9.99279174419941
C         6.88127057125043    7.34854997219323    9.47896633112475
H         7.21743467813328    7.45423209767863    8.45825955005421
C         6.67642756148860    8.47393182801873   10.25827865629126
H         6.83008973229522    9.45498263141437    9.83707979155003
C         6.28966307558699    8.33547613069971   11.57923956196606
H         6.13210113072360    9.20565425124933   12.19812613068993
C         6.12014943906375    7.07346985662983   12.11855910344819
H         5.84097092683857    6.95762175015735   13.15814265859096
C         6.31709905166099    5.94325470179836   11.33577542951866
N         7.41538555880129    3.75043871519013    3.39700805398018
N         6.47061564152587    4.67777296660486    5.31264924822112
H         5.71450515077988    3.99350072606464    5.23357622375047
N         5.77298013104585    4.40310620414044    8.32600680233207
N         5.62897428939453    1.86708748987654    9.37909436203762
O         7.32874744470109    6.47171200147970    6.38656856934653
O         6.16176211501318    4.68783533915502   11.86204300272850
H         6.03164682682117    4.76122068672017   12.81499488102274
S         8.83571555427569    5.68580018901585    4.40887839847307
Zn        6.24985624672515    2.45267121579661    7.43904358647071
Cl        4.42977640732833    2.36171863712709    6.10290118696770
Cl        8.35539687992326    2.12652761408039    7.02993168875213

