102
CSD_code = CIFZIB | q = 1 | S = 0 | Stoichiometry = C46H45N5O4PRu(1+) | MND = 6
Ru        2.09474598535341   -3.90607423787901   16.03063641137564
P         4.16153004936389   -4.95959969100280   16.36323682437023
O         2.87444112529201   -3.17275054576797   14.28936470965834
O         2.74247092627574   -2.34382145300238   17.17179683964627
O        -4.38477599028159   -0.84610269766068   16.27237025145180
O        -1.31598814001730    2.00465661672385   14.37979239596413
N         1.35285754090091   -5.44953631211335   15.05568758756043
N         1.21153352472617   -4.70545286279287   17.57676661146766
N         0.43511228372207   -2.70824735491852   15.71384974608546
N        -3.85288738717279    0.14354853953432   15.71905549844804
N        -2.37138992811405    1.52605272166498   14.85084169733012
C         3.06162779064224   -3.84752989764497   13.21562338803969
C         3.87830675904407   -3.27281708768833   12.20460546103503
H         4.32058129237628   -2.31194629835716   12.42151332774533
C         4.11507592284445   -3.90881049686611   11.01833376850344
H         4.75224115441079   -3.44780601575127   10.27869543542412
C         3.53229016002170   -5.15318562248645   10.75132243880747
H         3.71793517603136   -5.64528053264330    9.81008010633069
C         2.72356686535385   -5.73417365494978   11.69114166817686
H         2.26586419787544   -6.69218216409358   11.48943299551583
C         2.47122595080589   -5.12660146116146   12.93626994984506
C         1.62305914258277   -5.81488575282910   13.84734879371747
H         1.17018255987502   -6.73352680549922   13.46774176825338
C         0.46400933395802   -6.25483737428305   15.86567940667412
H        -0.56955259746654   -5.91795714902427   15.71003171354084
H         0.51380574250489   -7.31261461369226   15.57943075602112
C         0.84872744003605   -6.08204603027179   17.34527622059758
H         0.02924527823545   -6.40411256799694   18.00001854832773
H         1.72830650108714   -6.70500527503910   17.56375494403584
C         0.87614138292173   -4.10477376621114   18.66803273694877
H         0.27774477615268   -4.64709192218789   19.40355802479954
C         1.24331468927598   -2.77532285843275   19.01990876782892
C         0.72040639238778   -2.24787728136121   20.21808204165320
H         0.03526107252470   -2.86038325000111   20.78699078768983
C         1.05233251268665   -0.99858069595159   20.66819405529949
H         0.63058293598378   -0.61719741938508   21.58432301638992
C         1.95775767112134   -0.22008366988355   19.93558584904914
H         2.22862492967356    0.76179974398207   20.29330292290680
C         2.50339509024931   -0.69756105049249   18.77779678578509
H         3.20772259357893   -0.11293864866000   18.20551271813153
C         2.16799653471171   -1.97819933356745   18.25653829451489
C         0.72388898926218   -1.49379654544668   15.23866839153807
H         1.75210115730337   -1.32247977183709   14.94020892814738
C        -0.21054861098893   -0.48816963461697   15.10844320495602
H         0.08385361619454    0.46837012919102   14.70843709356210
C        -1.53707763822257   -0.72212585981938   15.49229068483368
C        -1.82827751983794   -1.99475247846019   16.00116963313351
H        -2.82690175810856   -2.24051646648770   16.32348635252046
C        -0.82561507404389   -2.93536520614548   16.08835118359032
H        -1.05560952675103   -3.91443659988202   16.48652636198036
C        -2.56319334959835    0.29481443663695   15.36134993419050
C        -4.66659514886241    1.29309426376061   15.26690773744339
C        -5.70380371723406    1.63249295922497   16.32883494495773
H        -6.34938297695982    0.77022623890078   16.47676015890304
H        -6.30962411843304    2.47207604133715   16.00233008664491
H        -5.24437337208554    1.87187284532123   17.28261552119707
C        -5.37978455758869    0.81604750929294   13.99546003874513
H        -4.66806633503102    0.52910182518032   13.22418579011128
H        -6.03314620834314    1.59244290515309   13.61034631902443
H        -5.98452826214939   -0.05439054654715   14.24166534329360
C        -3.58313356413354    2.36045089812810   15.00861253338748
C        -3.30492998698717    3.26435264518246   16.21609893900936
H        -3.13082234444529    2.68109186037404   17.11795709845616
H        -4.13397035843875    3.94486353759438   16.38255881784471
H        -2.41123246958130    3.85057701820912   16.01210419978328
C        -3.77266434183260    3.22134964648843   13.76676730523370
H        -2.90578212452793    3.86760374896259   13.65256321950878
H        -4.65888265320526    3.83929205437466   13.87371139927444
H        -3.86103417390320    2.62142726963729   12.86637180823899
C         4.37545974378807   -5.84114383961323   17.94265842787482
C         4.05496721352207   -5.10215561320254   19.08095814151811
H         3.72157292683440   -4.07756295318752   18.96694772150325
C         4.18499018917450   -5.66270112605220   20.33675508181762
H         3.93750707126700   -5.08403002900935   21.21402084524506
C         4.64033467729743   -6.96626772291524   20.46625099968593
H         4.74140071329925   -7.40811271003375   21.44557514227325
C         4.97859464123674   -7.69730896844564   19.33970073680118
H         5.34949860689680   -8.70604709715582   19.44172256042487
C         4.85060147127119   -7.14036821366385   18.07793304285959
H         5.13105856126288   -7.71259382552672   17.20530754144539
C         5.58806064479901   -3.83578410744239   16.39585429464855
C         5.47660758501907   -2.53685294750965   15.91247750018893
H         4.52633167443121   -2.19049108443402   15.53089372991548
C         6.58012480852692   -1.70097918860200   15.92931204411148
H         6.49532910003540   -0.69114522851252   15.55636545740155
C         7.79138824588296   -2.15553216455605   16.42363358480463
H         8.64965652890511   -1.50098094841890   16.43787166745838
C         7.90454807034928   -3.45214275524094   16.90202090230903
H         8.84904386739469   -3.80672865531512   17.28623960302010
C         6.80842899713284   -4.29350209750445   16.89068354220750
H         6.89424890548821   -5.30461989621852   17.26438698488117
C         4.59593589874908   -6.15237787010785   15.06529931936690
C         3.90916991967225   -7.36322858222508   14.99103621742829
H         3.18577998838880   -7.61626248128549   15.75576931831449
C         4.15651159678767   -8.24260081009314   13.95399020378452
H         3.63119500286508   -9.18538467355384   13.90940793176394
C         5.07544499989037   -7.91287761610017   12.97039326923952
H         5.26388170240221   -8.59736251209366   12.15776986238788
C         5.75034890914910   -6.70532140657839   13.03111713345518
H         6.46317246670193   -6.44551964573354   12.26367345003956
C         5.51284961503775   -5.82539311686018   14.07167476173014
H         6.03716284350882   -4.88157860679728   14.11409068564658

