49
CSD_code = CIGCAZ | q = 0 | S = 0 | Stoichiometry = C21H22N2O2PdS | MND = 4
Pd        8.92975522300986    3.21612600339944    6.18787083646692
S         9.27574483020062    1.30472648973631    5.16067188060521
O         9.27312432776280    1.35510879566487    3.70460975432450
O         8.16118199662830    5.79090470184877    9.22821707909241
N         8.98167357460132    4.62669359522437    4.50977531916668
N         8.68330857404762    4.89952188903217    7.17382177348638
C         9.12434612711905    4.44602170716881    3.21611674064096
H         9.13717946571910    3.41996530047221    2.86639626272059
C         9.25625650397951    5.51187366069956    2.31395050555973
H         9.37301921313335    5.30507019462880    1.26165488002443
C         9.22983963603871    6.79409364898316    2.79139067536689
H         9.32498092457113    7.64120535580515    2.12670103328355
C         9.07441675850906    7.02350845308231    4.17408379537092
C         9.03318968506925    8.30997262711066    4.74057421132173
H         9.12890553759965    9.17016960617191    4.09512967363195
C         8.87250407265584    8.45119651531897    6.09489904191865
H         8.83922179965080    9.43890762398684    6.53099353926838
C         8.75372004939575    7.34691299113120    6.93891265105831
H         8.62435381148044    7.49024654545948    7.99848353896555
C         8.79508005241818    6.05406363418893    6.43547841222243
C         8.95640986899413    5.88672279055854    5.01990694723649
C         8.34364690893267    4.84549363343179    8.48152734006506
C         8.14378503663661    3.38174983984514    8.95202127048131
C         6.65494707073333    3.12645703847644    8.75829915720255
C         5.76711032591253    3.15970836269904    9.83003233909604
H         6.12341530663919    3.36024662846409   10.82610428633248
C         4.41169197850412    2.94685091060460    9.64743977415710
H         3.74958456266697    2.97742492349867   10.50055645403009
C         3.90282235397801    2.70181810158683    8.38571148318840
H         2.84566178970097    2.53512060533083    8.24223597007051
C         4.76767975084414    2.68636997039637    7.30508904697547
H         4.38358605791264    2.51341162323221    6.30960519797466
C         6.12283390954156    2.89790099793142    7.48730652769778
H         6.76904173047867    2.90073754763477    6.58896730825962
C         8.99694147311035    2.44429217315888    8.08075289935726
H         8.65298705581806    1.40828656140090    8.21544014379971
H        10.05206617784241    2.51731173742120    8.40121915760518
C         8.57508045688987    3.27499719205353   10.41958273509087
H         8.15975369249960    4.10338567223376   10.98776423697566
H         9.65909260769358    3.34681219507965   10.48476442740453
H         8.25944825294608    2.32874020641164   10.85348891089943
C        10.86202013161427    0.54735193424242    5.64730879275977
H        11.64532676160831    1.26540866147915    5.41965559870646
H        11.01764842947351   -0.36214023165528    5.07803492862008
H        10.83562367932469    0.34868457643892    6.71308973920771
C         8.19963850793865   -0.10128011596185    5.61011237212711
H         8.33070350283159   -0.33017798511460    6.66074947350898
H         8.46410093236546   -0.94693951258268    4.98585096331110
H         7.17254952294724    0.19326462257724    5.41825091335533

