41
CSD_code = CIGCIH | q = 0 | S = 0 | Stoichiometry = C20H16N2O2Pd | MND = 4
Pd        0.04298771116296    2.91309812067722   10.15448019038223
O         1.21660803611832    5.13819064360705    6.97461140452846
O        -0.10980433252873    0.50948867834951   11.90429877048981
N        -0.77724617591957    4.49856223033456   11.43094026123094
N         0.38513477234548    4.48491789793746    9.02926406975137
C         0.17800988479319    5.71612041252314    9.60164432059197
C         0.49244647510891    6.94805375844953    9.04312964053441
H         0.95900984294654    6.97888988109281    8.07245689965635
C         0.21307340132701    8.13368746245236    9.72201255873024
H         0.47942030630619    9.07014465926988    9.25413348660548
C        -0.38126384722601    8.13705649474056   10.95888622125568
H        -0.58781588762068    9.06079034253648   11.47780091262042
C        -0.73050842294203    6.91943124390466   11.56838294480933
C        -1.34805248306158    6.83214859232876   12.83205003556365
H        -1.56840656511991    7.74073602504451   13.37390901162268
C        -1.65967680929693    5.60412587899943   13.35232106008875
H        -2.13306415620647    5.50578197040379   14.31655097596740
C        -1.35759629327600    4.45345912815755   12.61253706759930
H        -1.60547925408585    3.47265475029091   13.00331737642471
C        -0.45044891456381    5.70034980947707   10.89051184573718
C         0.83632111200089    4.29403193517196    7.76466317457850
C         0.70414893147179    2.79422465605017    7.39752223576579
C        -0.76665874379989    2.71579983326280    7.00709668274018
C        -1.17237063399714    3.32593077469378    5.82084593773622
H        -0.43978947637047    3.80621274320173    5.19240700105301
C        -2.50277539503783    3.35384924805231    5.44815797366915
H        -2.78906389077148    3.83586063384618    4.52490275366897
C        -3.46641304500878    2.77606284491484    6.25705079163572
H        -4.50714726689036    2.79947862750802    5.97017167427923
C        -3.08091967574398    2.17025525898756    7.43886397556352
H        -3.82261802358845    1.70940254379340    8.07576340279839
C        -1.74635783506293    2.14052407699280    7.81715842078262
H        -1.49160964567466    1.60330676208299    8.74020838937027
C         1.61281182529616    2.43217861512128    6.21572448040771
H         1.68104111156967    3.27299110397519    5.52983225796850
H         1.22944628433165    1.56329103019282    5.68603179203545
H         2.61781612623837    2.21311081012208    6.56984157008416
C         1.06616794919711    1.97075009859633    8.64126390690561
H         2.14203409429682    2.09623240871946    8.85131065420079
H         0.86769023673111    0.90517732403531    8.46478651623422
C        -0.09418132746983    1.41984069012142   11.21375735434664

