23
CSD_code = CIGCOK | q = 0 | S = 0 | Stoichiometry = C10H9AuN2O | MND = 2
Au        6.90189974388638    6.88939810058148    1.17544405140813
C         6.05014807882035    5.65462061635573   -0.17356364414319
C         4.89098998242800    4.99058308021566   -2.00802916361318
C         5.17979431544693    3.73331743549144   -1.16838813741988
N         5.94632285453397    4.34442741530190   -0.07982920364401
O         5.46845042990897    6.07576509647113   -1.26281540350351
C         3.07958905480859    3.71764268920405    0.20704515736358
C         1.93698041245587    3.09487032140418    0.67495021367991
C         1.64203501050802    1.80002321147481    0.28202461774604
C         2.49397910701239    1.12842271084978   -0.57806802850089
C         3.64001152194925    1.74841871418926   -1.04441152539690
C         3.93799628939291    3.04722835069078   -0.65691656916588
C         7.68737373025040    8.05982548997432    2.48449489830479
N         8.16239934957967    8.75128633077827    3.27403183384470
H         3.82188825933871    5.18678670544568   -2.11957836666773
H         5.36120087025721    4.96997789138486   -2.99302626336703
H         5.80947869564870    3.01651254796724   -1.70755477418781
H         6.29278277661828    3.80627396314894    0.69545908156234
H         3.30640503027210    4.72766357941066    0.51944855361878
H         1.27733990385709    3.62184666542378    1.34734400253412
H         0.74974582215365    1.31484245538362    0.64710180122203
H         2.26837492751681    0.11870848804543   -0.88585044790499
H         4.30491383335317    1.22255814080890   -1.71451268376504

