41
CSD_code = CIGCON | q = 0 | S = 0 | Stoichiometry = C20H15FN2O2Pd | MND = 4
Pd        5.63266729799179    2.62329133641584    1.08656956111286
F        11.17487317704783    4.92634056761379    3.81622676731212
O         8.24652052554362    3.75034107034292   -1.81034616752575
O         3.35208872553928    2.91181641845500    2.97906036285134
N         6.00262588249945    0.46556746376888    1.09131209890122
N         6.98721743578588    2.50449927033537   -0.32856231857930
C         5.49917260862106   -0.50414578699627    1.82716886821966
H         4.86640935641057   -0.21502593621788    2.65915253886865
C         5.75684373999761   -1.85774007041965    1.57522823465365
H         5.31662636523746   -2.60902533621870    2.21168813726626
C         6.56621529212190   -2.19746562629446    0.52379370491204
H         6.78764525080876   -3.23116900784101    0.30046324608533
C         7.12417515644272   -1.18655874447444   -0.28375437999081
C         7.96582563838426   -1.44771064659750   -1.37925623072364
H         8.19991575631822   -2.47170070525149   -1.62752624351264
C         8.47301374975835   -0.40439120007166   -2.11120507469096
H         9.12039642395508   -0.60504246234441   -2.95210770707324
C         8.17428393420689    0.92335518788284   -1.80449146771065
H         8.59075128958620    1.71943959157722   -2.39896862375921
C         7.34273198128613    1.23963151454281   -0.73897787832213
C         6.80643002762592    0.16196728146215    0.03980707740679
C         7.48786460676374    3.64410688425366   -0.86473328129554
C         7.03212078972944    4.86911162233417   -0.02624556370409
C         8.10823128243929    4.91664870085330    1.04890963628832
C         9.33889403156810    5.50508526151103    0.75744386814153
H         9.50582157001267    5.94900589802357   -0.20925598019506
C        10.37123167990321    5.51573213353267    1.67600511892563
H        11.32024966041364    5.97263989061877    1.44425572421575
C        10.17520098337829    4.92045666626113    2.90738616615227
C         8.97702115430494    4.31190613099332    3.22702102473904
H         8.85241151526137    3.84942719180336    4.19380094419636
C         7.95215233479370    4.30850316960531    2.29511877594103
H         7.00608001785359    3.82649807107018    2.58580932662113
C         7.03911487673864    6.13657417455122   -0.89130574660701
H         7.85443947040072    6.08928030240134   -1.60930996869825
H         7.14412442265801    7.02650147401536   -0.27568628642812
H         6.11142313536021    6.20799554376917   -1.45470848631698
C         5.62162798605852    4.59840813568261    0.51991210931451
H         4.89728013576985    4.68040581424134   -0.30830767660319
H         5.36430899715932    5.34526797464440    1.28306153509448
C         4.25797173429723    2.80717078019104    2.29175425451522

