67
CSD_code = CIGFUU | q = 0 | S = 0 | Stoichiometry = C30H34Cl2Zr | MND = 12
Zr       -2.39448477377261    1.49144354706123    3.23635477881816
Cl       -0.86535394858494   -0.20617911198550    2.64619237007142
C        -0.68046681796332    1.61589637168025    5.07212922171045
C        -1.86934954506539    1.15490891145552    5.67906604723749
C        -2.84782270034596    2.18844158370954    5.59921430897055
C        -2.26588060811056    3.30239682119165    4.93465558998864
C        -0.92324304833474    2.93811954112735    4.57754324881947
C         0.12689201172249    3.74673929505854    3.95240909070536
C         0.41283161754403    5.05587531554360    4.34066434121711
H        -0.15326624354900    5.51383288808174    5.13701506264017
C         1.43830891858434    5.75867584340001    3.73377630807630
H         1.64646254568317    6.77285472050447    4.04218259595526
C         2.20696149563837    5.16603474439693    2.74587378430371
H         3.00827671479786    5.71790510932169    2.27793187882915
C         1.94956782188292    3.85679087688949    2.36882882564985
H         2.55365883302607    3.38616002683887    1.60666898327684
C         0.91881319756676    3.15217293439706    2.96203970669825
H         0.70745028577894    2.12968587419828    2.66304513587745
C         0.65782580072369    0.94753390328245    5.22031091812671
H         0.77677517142578    0.61113101257840    6.25099484817921
H         1.46194185351910    1.64436191468994    4.99125961566443
H         0.76032869365071    0.07594797850813    4.57313687148621
C        -2.00234868417933   -0.15747011784101    6.39538622197698
H        -1.48057413339219   -0.12086065815050    7.35485684183924
H        -1.56192077496886   -0.96120992075673    5.80144854340582
H        -3.04698849780483   -0.39695628313059    6.58222796931290
C        -4.16726881039210    2.16171544194783    6.31946295570939
H        -3.99440272925017    2.11694395369652    7.39693140006502
H        -4.75184793251660    1.28305552013436    6.04091899363195
H        -4.74877718559036    3.05589651747642    6.10737660681444
C        -2.84056143023233    4.69375899237898    4.94555729568267
H        -3.89102499575315    4.71108878244042    4.65841811128826
H        -2.28710444045759    5.35478510467223    4.28420516278257
H        -2.77129236888800    5.10224086473168    5.95741794998537
Cl       -3.92385689426227   -0.20625962113722    3.82641964251757
C        -4.10852607974397    1.61587853538503    1.40058656970392
C        -2.91964552039814    1.15489595517995    0.79364534448189
C        -1.94117508363408    2.18843275485008    0.87349527914195
C        -2.52310571052726    3.30238126572968    1.53806669238728
C        -3.86574624096054    2.93810461297608    1.89517040885408
C        -4.91588034123310    3.74672633728560    2.52030527161687
C        -5.20182896645759    5.05586713228445    2.13206547915739
H        -4.63572238797005    5.51383993428190    1.33573073243193
C        -6.22730829546056    5.75865654199981    2.73896652021675
H        -6.43546197162434    6.77284176327828    2.43058188873257
C        -6.99595445037631    5.16599990771359    3.72686595658239
H        -7.79726647075373    5.71786125816922    4.19482013467532
C        -6.73854939955482    3.85675580027733    4.10389823207117
H        -7.34263095096552    3.38611372454004    4.86605938854792
C        -5.70779213103372    3.15214759154498    3.51067442522087
H        -5.49643368498208    2.12965023472096    3.80964760238330
C        -5.44683499717316    0.94753876203560    1.25241849882169
H        -5.56578315224998    0.61111488889501    0.22173395853990
H        -6.25093845805752    1.64439898263894    1.48145500191479
H        -5.54933907796217    0.07595882901475    1.89962481651442
C        -2.78662551361925   -0.15747367576282    0.07732188465627
H        -3.30814690400078   -0.12077793369743   -0.88227414195576
H        -3.22729177172737   -0.96117078199725    0.67112376252718
H        -1.74197347368142   -0.39707361139484   -0.10926457237738
C        -0.62174157368735    2.16170079480094    0.15322691465670
H        -0.79463971438543    2.11684170905988   -0.92423573653039
H        -0.03712522558110    1.28307817623803    0.43181884342367
H        -0.04025926888711    3.05592062854875    0.36523449321578
C        -1.94843794658524    4.69374779040536    1.52719082734614
H        -0.89793912146542    4.71106008284055    1.81419248521800
H        -2.50181407990475    5.35472113717419    2.18866062313395
H        -2.01784043347789    5.10230219258280    0.51537118736419

