39
CSD_code = CIGHOR | q = 0 | S = 0 | Stoichiometry = C17H18ClCuN2 | MND = 2
Cu       27.03228671995266    5.12077371229374   10.35160792118357
Cl       25.15680884779317    4.23180924109411   10.24896035680399
N        29.41394927832393    6.22785794015187    9.24564458601674
N        29.63133085068890    6.27765984271057   11.38181480146234
C        28.76989392259193    5.91476704943729   10.38871400718642
C        30.63971973357598    6.77038245425768    9.47605916844036
H        31.29389632740364    7.07641097561988    8.68684266258446
C        30.80224178518057    6.81265639611213   10.83628603455872
C        31.84080777454232    7.26272442083183   11.68175664476495
H        32.73203350583366    7.66967869330109   11.23337896360589
C        31.67221086619080    7.16555087691182   13.02431090951376
H        32.43768618334222    7.49949733501326   13.70607564364879
C        30.47374987288123    6.61759690865352   13.54892190682807
H        30.35721389160788    6.54631791835980   14.61793183327177
C        29.46888957319084    6.17794386341623   12.74455447656722
C        28.20559443046650    5.59470479898262   13.27233973849112
H        28.22670883189647    5.57189542805673   14.35778328230435
H        28.06536961695517    4.58187949435795   12.89576447742280
H        27.34690579841229    6.17942652649023   12.94380781198409
C        28.86108852655208    6.01706240332541    7.95212826510228
C        29.02487935200317    4.77749427042417    7.33567724327671
C        28.47701393437013    4.59441724978356    6.07635085802838
H        28.58874572787808    3.63697190889011    5.58900563600159
C        27.77825778166229    5.60818584038707    5.43490272632528
C        27.63341817702582    6.83088246181561    6.07532340392321
H        27.08471491512192    7.62381284866103    5.58844260862490
C        28.16604873889828    7.05543534001608    7.33491385622940
C        27.98094944027735    8.36436666510425    8.03946946687290
H        27.39631087220651    8.21530915950864    8.94761999281493
H        27.45735329554978    9.07110383405040    7.40227410015912
H        28.93998680337286    8.79575673396324    8.32513809130585
C        29.74892598970086    3.67259243257255    8.04089439107199
H        30.73088817840252    3.99992833060805    8.38122766845048
H        29.87298515273698    2.81573876944576    7.38516507892771
H        29.17698755191692    3.36064370572948    8.91578375342586
C        27.16235791102942    5.37207328990641    4.09113983017399
H        27.76720732526339    4.68816166029504    3.50042777305972
H        27.04421485918720    6.30518301036546    3.54598058385739
H        26.17566765601267    4.92574620914352    4.21597944565183

