86
CSD_code = CIGJEK | q = 0 | S = 0 | Stoichiometry = C37H42ClN3O2Pd | MND = 4
Pd        3.46021925657506   18.09197928005297    1.57595655110964
N         4.04384334610406   16.00153283589092    3.52879845267030
N         5.88231212659624   16.96103644137684    2.95171459199869
N         2.10791548714990   19.04161159726844    0.29055918722098
O         2.60892699765931   16.43847214327808    0.76100395366690
O         0.55167157688363   15.87445249695495    0.15741138237837
Cl        4.37407814694461   19.89393927267474    2.57254492061515
C         4.55250556930565   16.97913058088651    2.75763048023910
C         5.05259371641239   15.36777784485544    4.20736884828373
H         4.86584107401335   14.56064857152482    4.88525627691839
C         6.20816220269548   15.97275707691600    3.84796094092925
H         7.21978230559553   15.77757918552455    4.13745900787644
C         2.67008519430687   15.62468979352482    3.53340681476652
C         1.71552256750282   16.51420651692002    4.03970452625488
C         0.38057814336380   16.12816750229972    3.99946307092012
H        -0.37767965996595   16.79485929111160    4.38059597168339
C         0.00751330970577   14.90758919602838    3.47357496146978
H        -1.03553271654981   14.63179333953634    3.43773822657963
C         0.96495607141825   14.04513413009258    2.97908389347113
H         0.65936829767297   13.10289248207280    2.55391624784441
C         2.31020159979735   14.38591143004582    2.99152843283946
C         2.08596778901447   17.83997481414518    4.67277514559326
H         3.15771950415647   18.03588498319786    4.54060412387034
C         1.80143715226093   17.79734347655559    6.17684929094571
H         0.74414365078581   17.62916566453914    6.36706848500723
H         2.08972707442196   18.74032554298815    6.63527088725237
H         2.36513798977794   16.99578547457837    6.65033957679960
C         1.32801106367382   18.99453885068950    4.00726227777803
H         1.47110065940995   18.95774977729274    2.91728480705348
H         1.71436136205386   19.94521817012436    4.36936132954314
H         0.26214342488210   18.94696052569768    4.21857928679913
C         3.32115631931877   13.44019320723352    2.38582184442795
H         4.31364130265111   13.89999599203693    2.41006760610935
C         3.38550941077855   12.13242257062821    3.17933721196928
H         3.64062387104388   12.32073373212783    4.22091791441578
H         4.14016255328479   11.47498351635419    2.75303794785878
H         2.42864149868224   11.61771469369593    3.15260396454920
C         2.98019899671176   13.17812542283509    0.91731681939045
H         2.07079180301854   12.59201479609588    0.82156783870360
H         3.79248525279040   12.63840295324651    0.43426330591901
H         2.82808945517283   14.12551283775223    0.40715679008319
C         6.81729096914979   17.84402179627108    2.34503952505482
C         7.55715625840175   18.70811896246048    3.15934699519356
C         8.49173802615976   19.53701394252805    2.55442711095885
H         9.07313484925902   20.21321502294563    3.16094428785606
C         8.67864403865859   19.52098776422829    1.18676484420991
H         9.40713213472569   20.17681214395446    0.73354399158493
C         7.92620976964613   18.67481686611534    0.39748072207409
H         8.07395391162503   18.67791739164876   -0.67121782364050
C         6.98258432997030   17.82081567212555    0.95562358503778
C         7.34824549857915   18.79640335884156    4.65325925774326
H         6.53709544521709   18.12577028600700    4.94907648401513
C         8.61396952788951   18.37767722332334    5.40615195369953
H         8.91979226551363   17.37085859725551    5.12725177050810
H         8.43326984812482   18.39809619113686    6.47848935191636
H         9.43594115122358   19.05360323790774    5.18543796038730
C         6.92163746795920   20.21368831477253    5.04227978488717
H         7.71909435961463   20.92931188633601    4.86289407523164
H         6.66216040502369   20.24598469024559    6.09819625230336
H         6.05401678591470   20.50519305405156    4.45551768639544
C         6.19849713612250   16.89948546569116    0.04460025018440
H         5.47241068179987   16.31565512959368    0.62607055693610
C         7.13367526337567   15.90977178066842   -0.65522841450864
H         7.85120378177966   16.42742581718102   -1.28710354139225
H         6.55482419804472   15.23098691648589   -1.27702789576835
H         7.68499805842248   15.32224004955934    0.07632103159230
C         5.40355808222839   17.72292218566477   -0.97905186972710
H         4.82507497283568   18.50541560451799   -0.45857417780371
H         4.71704088475590   17.07329023855250   -1.52054807360645
H         6.06422693727664   18.20459662383788   -1.69663880874982
C         1.12009899620067   18.17648439416387    0.13110216372879
C        -0.13819726381944   18.53907245749123   -0.38005532900595
H        -0.88154103160548   17.76172498097070   -0.46444879562720
C        -0.36668785903601   19.83910459217286   -0.72959927914508
H        -1.33031352620702   20.16495933051834   -1.09494284628579
C         0.68966577620704   20.76992404368305   -0.63882482913135
C         0.55934747510669   22.11193200500326   -1.04722182940434
H        -0.39650159901421   22.44398373739961   -1.42623257853110
C         1.62311691787313   22.96765675926638   -0.97494167606399
H         1.51694679954102   23.99502117950732   -1.29009828627191
C         2.86383098612209   22.51520928663624   -0.50115545463959
H         3.69916760349219   23.19783082012687   -0.46544484162589
C         3.02574769549431   21.22148270287504   -0.08812395966662
H         3.97888117321168   20.87315674847512    0.28473904303069
C         1.94027934304403   20.32255027715883   -0.12721743268639
C         1.42276672724663   16.69670245997388    0.39267586505838

