71
CSD_code = CIGKEL | q = 1 | S = 0 | Stoichiometry = C32H30IrN6S2(1+) | MND = 6
Ir        5.13326656164775   16.71535730678935    9.17543926908194
N         4.44391907221104   18.11843377715821   10.63878172840711
N         6.68585316768626   16.69858387395733   10.64937406186955
N         3.08778338163053   20.24407153357011   13.95570839983143
N         9.74213318089910   17.30620069548267   13.41576171542848
C         3.26231742448491   18.73244271733925   10.63775945085024
H         2.68481337138997   18.63862110966022    9.72891831557205
C         2.76963690666049   19.45552499793912   11.69425219267225
H         1.80480857458112   19.92018377796140   11.59895835175438
C         3.52924749318815   19.56549219780032   12.87819263210590
C         4.78171230624083   18.91951050299282   12.85945999129379
H         5.40985532214430   18.95088380280860   13.73089916534262
C         5.20791249578285   18.22590005792792   11.74173995503502
C         6.51774038472356   17.54860963957673   11.67943509417441
C         7.51670850285219   17.77597415297836   12.60810874737924
H         7.35074974635532   18.48768395263136   13.39604419934229
C         8.75261593278876   17.10389072474698   12.52343248424216
C         8.88400488333755   16.20539124010402   11.44346914754834
H         9.78402091451548   15.63773195322204   11.28961726523145
C         7.84696205420791   16.05291605122061   10.55851411553264
H         7.94070149771226   15.36939083006057    9.72647889539263
C         1.79514964714904   20.89067467294741   13.93003872587672
H         1.75317915501843   21.65313030523861   13.14802189040167
H         1.61160661280659   21.37484518149205   14.88473102476056
H         0.99728774520935   20.16390630803165   13.75802437298629
C         3.89468980606832   20.34102795936489   15.14970491626456
H         4.09531901042232   19.35200401069288   15.57077533659402
H         3.36647933549928   20.92407982714052   15.89840476277022
H         4.84581846435255   20.83930047932325   14.94216491714869
C         9.57200866784656   18.23282027340161   14.51059041080629
H         9.38015991261745   19.24464965181000   14.14345776983185
H        10.47837458109075   18.25876746911159   15.10817981406237
H         8.74691279173139   17.92730048103903   15.16011320507765
C        10.99134501741466   16.58918455802934   13.29362729749031
H        10.83149028800280   15.50975073277476   13.35485808538426
H        11.65729172357737   16.87856549655846   14.10128494408842
H        11.48470509550736   16.82005049893001   12.34610302219040
S         1.11796815030531   16.00553640280111    7.34264475824856
N         3.94320368745540   15.31439537348485   10.09080021023694
C         4.24931787164736   14.59449192648430   11.16773976995515
H         5.23325279637529   14.74819724000332   11.59013262240069
C         3.38179771485598   13.68437624366788   11.73754905695500
H         3.68174346810027   13.12485861863361   12.60828275647834
C         2.12552790194356   13.50281610251806   11.16463777004585
H         1.42759208612796   12.79731307110268   11.58759755118922
C         1.79491551643416   14.23535082220481   10.04675419213656
H         0.83817439074734   14.12842166118157    9.56073246159474
C         2.72315215697417   15.13804410295152    9.51878462045787
C         2.52655122764733   15.94332797547871    8.35965451877069
C         3.54731691921265   16.77457538327493    7.92782499162898
C         3.16305335488781   17.46202025222236    6.75565513160664
H         3.79059069963285   18.16002255137173    6.22912236028968
C         1.90206173973196   17.15126300473642    6.33845467482224
H         1.37963825933959   17.53261115244313    5.48240458728560
S         7.61551929178596   14.99396181382557    5.87933735074827
N         6.27016999558897   18.04012116945362    8.09822346574705
C         6.33282713231986   19.35769520613746    8.27693194226896
H         5.71075067388251   19.77075604081557    9.05957158355017
C         7.13446573598595   20.18407255934510    7.51528241407801
H         7.14492252086654   21.24568001676175    7.69991128311385
C         7.91690967157766   19.62213489693429    6.50964081064716
H         8.55150126775453   20.24385798647331    5.89769761338557
C         7.86000158378160   18.26128518590867    6.30802752857569
H         8.44035778060237   17.77678338854405    5.53896789723524
C         7.02320398217817   17.48292297303980    7.11354813582333
C         6.84681599976545   16.07291498714793    7.00495098633265
C         5.95411730433618   15.43320418773554    7.84960263981918
C         5.90680314642265   14.05098958178719    7.56445983222883
H         5.28133060948172   13.34601013765520    8.08406983769646
C         6.73743624208911   13.68276784121565    6.54702660652487
H         6.88522809081017   12.70066734084978    6.14105236430436

