65
CSD_code = CIGLEL | q = 0 | S = 0 | Stoichiometry = C21H40P2PtS | MND = 4
Pt        2.89507043631325    3.10994143717194    7.60254254608942
S         1.28239247748429    4.32794504346727    6.41536821723142
P         4.48968124573161    2.15134696877747    8.96518848937570
P         4.54723462689474    4.68703059488987    7.07751770814685
C        -0.31034082015077    3.46045707316911    6.31982664730579
H        -0.97107641865845    4.11209856219433    5.75165221955871
H        -0.71495466450588    3.29895942693844    7.31537945880705
H        -0.19468140994296    2.51069457603742    5.80497955350641
C         1.55049881006264    1.64464506036265    7.94903710723668
C         1.39688678164896    0.59882633027185    7.03826321339965
H         1.98666000949637    0.58232929722232    6.12601440486241
C         0.48766970824434   -0.42288534092378    7.25839885936174
H         0.38870658526285   -1.22086962316401    6.53435992207109
C        -0.29431743956623   -0.42368428850541    8.40018595229791
H        -1.00350291512181   -1.22060710793589    8.57496446883808
C        -0.16547413590798    0.60922601680772    9.31207997666717
H        -0.77904049547772    0.62288763262903   10.20333296480096
C         0.74718812234521    1.62736540917694    9.08882635966703
H         0.82078290843765    2.42950336033755    9.81588392795319
C         6.13967129946388    2.95828474609412    8.66233967578458
H         6.74754183405591    2.89998592642068    9.56970883878881
H         6.63720746745872    2.35107256735503    7.90230710643375
C         6.02602435379123    4.40191967084487    8.17517988456913
H         6.93998509550077    4.70102844380713    7.65343155832912
H         5.89583737911551    5.06831132293542    9.03186712451049
C         4.98985739334709    0.35431643076491    9.03518953977420
H         5.94118954926349    0.27506776555155    9.57718115722272
C         5.17499204223372   -0.14246390958655    7.60327716325764
H         5.35803094219592   -1.21548433812119    7.59361566257539
H         6.01476210643359    0.34380860748336    7.11155923814684
H         4.27122483192776    0.05864272219603    7.03025574089413
C         3.91910166491315   -0.47897617557147    9.73305888738957
H         4.14312652344474   -1.53876233015034    9.62115341263839
H         2.94536721571569   -0.28785985854282    9.28495084158864
H         3.86465959041811   -0.25970457971869   10.79635656799718
C         4.05062974953132    2.56386804988705   10.72730306141013
H         3.21516965558198    1.88571182901481   10.94145637432008
C         3.50993162729801    3.99117604516618   10.77207394402501
H         2.96673814763995    4.17061113544967   11.69813562739720
H         2.82756747690858    4.15356646999422    9.92777488683949
H         4.31915134011855    4.71529641981318   10.70907269046334
C         5.14975730290367    2.34624580337089   11.76119244304193
H         4.73848740397922    2.47490899398067   12.76137514953221
H         5.95292251312855    3.07065193424503   11.64067670820005
H         5.57067463478464    1.34538731243870   11.69548536530288
C         5.20038005624910    4.34659162038605    5.36688420430914
H         6.23924545011686    4.69084888996959    5.28011974944069
C         5.13536428465598    2.83377370684179    5.16662063240442
H         5.35340535262129    2.56670021495703    4.13374580184751
H         4.12315983175982    2.48554010112511    5.41024880073478
H         5.84568009078957    2.31812118928352    5.80851834187853
C         4.32047466125153    5.03729353711679    4.32894695927935
H         4.52405693138954    4.63395413952446    3.33815185794079
H         4.49788783511351    6.10950087557942    4.29765002070988
H         3.27002330798809    4.86126343409699    4.56354543512464
C         4.34905555628558    6.53386077789631    7.12272388015728
H         3.65333275554895    6.73804942655449    6.30047773198601
C         3.64197512268171    6.92986908072887    8.41578626212678
H         3.36310745277615    7.98151727856654    8.38734562093196
H         4.27839443126671    6.77355651726591    9.28521551091266
H         2.73453328591963    6.33772589732210    8.52900231630377
C         5.63765455077218    7.32175858467011    6.91430224376916
H         5.40818689042737    8.38352253769244    6.83596233276013
H         6.14668977972283    7.01803882411794    6.00224354497926
H         6.31859981884192    7.18859193207336    7.75252810492128

