72
CSD_code = CIGLOW | q = 0 | S = 0 | Stoichiometry = C28H41AuClN | MND = 2
Au        6.06948485978322   10.19736503856938   11.80905179220139
Cl        3.94202212020079   10.85534709960430   12.24318706274709
N         8.89980141626876   10.48736160433900   11.96515009753634
C         7.58285036197243    6.79624087841693   12.27558954779114
H         7.11036810445122    7.59777521946167   12.84663457700695
H         7.86744378230677    6.00538883655960   12.97492841726022
C         8.17637265307195   10.04400436408320   14.81321042990418
H         8.51695834538027    9.28716303187132   14.10218140355769
C         7.80917466827182   12.50124158623561   14.90303754656269
H         7.64959664159349   12.37853051723264   15.96221687759639
C         8.01749840995032    9.67307636712850   11.45602233273882
C         7.73619863224900   13.88494402207407   12.96505754124325
H         7.52098212541290   14.84020005306861   12.51422635790271
C         8.10290704893259   12.81849314262561   12.15513565995773
C         6.20273252003377    7.37164264934402   10.29743128751320
H         5.53502241236402    6.99098383390210    9.52197301758552
H         5.65493874414314    8.14282642022028   10.84203471290991
C         9.06333875043747    9.98715712196526   16.06116086852849
H        10.08038982354205   10.31125537395001   15.85860652200660
H         9.09826964367851    8.96596749584095   16.43453931779376
H         8.66007950379027   10.61590557076781   16.85017259187389
C         8.06739946471158   13.02618968128648   10.65563085921323
H         8.44159942283410   12.12689959064616   10.15826549040062
C         7.23831527629693    5.11334514204572   10.45818131158598
H         7.52637808232411    4.29990420207476   11.12820840322102
H         6.52488881060672    4.71382408512978    9.73465867661542
C         8.38894370376931   11.58337454657397   12.76266497286192
C         8.84202668595301    7.31340347486104   11.57533962128904
H         9.54573419052782    7.64300345345405   12.34626841020768
C         6.61687360125446   13.23328922615346   10.20492963287833
H         5.99110601886792   12.39704901649712   10.51250388797795
H         6.57423460732700   13.31835289858374    9.12125782737138
H         6.20216123808950   14.13831763843423   10.64020617019482
C         9.46416396489558    6.16330431621282   10.78124330370203
H        10.39470563951495    6.47172686917438   10.30267355558319
H         9.70867893808376    5.35099723610967   11.47071325925681
C         8.17240425683200   11.39955351155104   14.13846012026670
C         8.46906897508807    5.65927885644191    9.73720819998248
H         8.93435945037912    4.86150391546660    9.14694857092888
C         8.04985298545600    6.79920681615919    8.80711302759513
H         7.28613574170605    6.43541684969347    8.11618519820739
H         8.89317061103773    7.12181495816465    8.19653599052005
C        11.00880404702563   10.12672720004588   13.21761860689302
H        10.79070187256958   10.92006635983864   13.92654661865541
H        12.08852877789051   10.05762387116928   13.10303659144156
H        10.65120230393031    9.18169564889729   13.61674019456608
C         7.62797272341093   13.74386844744902   14.33320232211430
H         7.35790266924483   14.58935591285656   14.94722418506774
C         8.50194079795687    8.49681163638825   10.63308400503343
C         9.72973298005577    9.02218869508797    9.86468013879294
H        10.11760222258586    8.29279236810886    9.15964115001640
H         9.41629558642436    9.89718243067647    9.28680628438477
C         8.89474118641721   14.23419989355717   10.19940011885271
H         8.40946576493636   15.16205769319191   10.48981098887811
H         8.97845658468877   14.23042051722459    9.11465462901645
H         9.89561626231891   14.23240753487943   10.62210920393311
C        10.93175630590553   11.80980654628772   11.42368559271466
H        10.63602494138489   12.04365338115801   10.40596713172557
H        12.01868650170283   11.77671099852723   11.46021198228505
H        10.59795972521279   12.59974931111817   12.08991749710072
C        10.83996722119881    9.39837349030987   10.82682587858163
H        11.68602839656829    9.79923562367118   10.26546316542438
H        11.19457147144389    8.50092497173435   11.33405354712361
C         6.59389347170657    6.24939057112666   11.25010400247364
H         5.70226587622927    5.88034173318462   11.76700425177206
C        10.38660298524619   10.44483804002926   11.85605005112169
C         7.45179454554274    7.95080803175942    9.62893220648385
H         7.15485915836490    8.76545076122149    8.95833216733543
C         6.74049821412532    9.68533577896504   15.21574352282670
H         6.70637958036568    8.67006535552150   15.60528025100731
H         6.06950854042918    9.75264124100783   14.36034257940128
H         6.37270705172650   10.36224944303395   15.98188668290111

