62
CSD_code = CIGLAH | q = 0 | S = 0 | Stoichiometry = C18H40P2PtS | MND = 4
Pt        2.11639709955805   -0.31990351669022    3.39994197396925
P         1.97567263601614    1.08882775678312    1.56217286102717
P         4.29981589867581   -0.76834557456174    2.65341803563918
S         2.30148082297660   -2.21688259385636    4.80375988276039
C         0.77991564887331   -2.65193231990423    5.69898258793426
H         1.00931233115534   -3.57160735635582    6.23315224821193
H        -0.03452558178787   -2.83135798837485    5.00169182463860
H         0.50913253247583   -1.87801910069126    6.41257181127776
C         0.36889336483188    0.34576214005568    4.31290334317903
H        -0.19173644668890    1.09579568153826    3.74318435981186
H        -0.30211138773602   -0.47898075660859    4.56938802093525
C         0.96903977860575    0.95613266753130    5.51022439901874
H         1.32395385616759    0.27599169930929    6.27954912963557
C         1.11022332361340    2.26556251549560    5.71392996315179
H         0.73315248892046    2.98995647921044    5.00973693941600
H         1.58913045122197    2.66037639818111    6.59448467874466
C         3.62318702801242    1.18053318653720    0.69441228912541
H         3.45130604918507    1.27288496921911   -0.38274959497118
H         4.08628386731637    2.10912703214203    1.03625771749984
C         4.56340591666912    0.00992162037697    0.98284769847014
H         5.60575129498081    0.32877563861236    0.88882929811671
H         4.39394827796990   -0.78629733902668    0.25402140923577
C         1.41664666860063    2.87074861247574    1.49708220686719
H         0.39616984077347    2.84315064759697    1.89884901323883
C         2.26590562293093    3.70664123164294    2.45175707822964
H         1.78623746617987    4.66489112433397    2.64399819376341
H         3.24981792218904    3.90824358183528    2.03224060894577
H         2.38953027993720    3.18437067725020    3.39896118400404
C         1.38723026201409    3.48976940965785    0.10342554414569
H         1.01937642233927    4.51290137893509    0.17052399339844
H         0.73132860106989    2.94164224145301   -0.56792537517915
H         2.38373505927312    3.52181651467040   -0.33130948195145
C         0.90039892434413    0.24904881798353    0.29163914649906
H         1.10476123226411    0.67442350437941   -0.69893619618343
C         1.25618149814580   -1.23456308402276    0.30085491362576
H         0.54656226236904   -1.80682305812100   -0.29427244686527
H         1.22425559868198   -1.60467037924566    1.33361133040111
H         2.25242530973698   -1.40515980938520   -0.09842067154439
C        -0.57437359634405    0.42150112506271    0.64050407028722
H        -1.19142135971885   -0.14065212310847   -0.05915108694693
H        -0.88352758635594    1.46338773844190    0.60038529858047
H        -0.75804214863959    0.03888624971476    1.64298460307470
C         5.51501884748285    0.12390330126023    3.74499735839851
H         6.45929118228977    0.28217908109425    3.20834592021169
C         4.88867198634910    1.46976453563984    4.09996727957862
H         5.48901694519530    1.99536214325753    4.84100725574006
H         3.89052678707138    1.30078443828650    4.52026842936905
H         4.79556780245368    2.10599935222771    3.22261548016432
C         5.75110739091423   -0.68734990984477    5.01544663267231
H         6.24788090513025   -0.07456315034289    5.76610567632815
H         6.37162366431279   -1.56023083313149    4.82757491854215
H         4.79458796838033   -1.02130034996260    5.41886129119831
C         5.05158441061718   -2.45494111614158    2.44125802991406
H         5.09263537924561   -2.84749744445415    3.46408329569043
C         4.08795303021104   -3.34295531989083    1.65930650495977
H         4.42731561175994   -4.37677949345544    1.67981208229165
H         4.01156828038334   -3.03451444177322    0.61801145763775
H         3.10106948031658   -3.29614316832271    2.11704967922371
C         6.44874193452795   -2.46086395339240    1.83033581300895
H         6.84719529132657   -3.47435150521601    1.84275057623425
H         7.13146629613103   -1.82396876332015    2.38787519538454
H         6.42584927509521   -2.12390904298721    0.79591432022251

