118
CSD_code = CIGLUA | q = 0 | S = 0 | Stoichiometry = C53H53N3O6P2Ru | MND = 6
C        14.20474341544968    5.61277229317971    8.92595417327605
C        14.31441474949028    4.32708451038936    8.39927540020018
H        14.18086102232946    3.47403442346508    9.05354125238036
C        14.59912181560553    4.14360916978547    7.06034699942354
H        14.68329916032860    3.14401311551668    6.65849741042736
C        14.78637980198194    5.24127086363312    6.23498774454071
H        15.01589959653139    5.09822099781780    5.18908110552964
C        14.68676532248013    6.52037466786226    6.75494582336564
H        14.83838218515770    7.37685909790612    6.11369696380912
C        14.40137341563243    6.71002731679088    8.09605448259919
H        14.33332596195431    7.71243149480101    8.49210961512296
C        12.65346858665775    4.57814011155843   11.03460989914376
C        11.61111119448986    4.41197051350976   10.12461035312739
H        11.60191675496258    4.98802229523917    9.20918740514357
C        10.59980935850735    3.50743733872202   10.38939005445957
H         9.79213276119492    3.38204841677029    9.68267170215917
C        10.62161944856861    2.75881524159915   11.55646677329433
H         9.83003486162021    2.05172558022635   11.75714562034486
C        11.66198751408386    2.91117404525952   12.45744837243885
H        11.68489627912466    2.32080467870564   13.36185787789105
C        12.67563519539830    3.81778180749714   12.19811420757184
H        13.50686870079305    3.93170527454519   12.88167379969784
C        13.15326282550632    7.37456641749671   10.87902772392184
C        11.81606246472910    7.54455801652738   11.02525605930255
H        11.14673221418690    6.70052371168417   11.02788467541165
C        11.28483469145571    8.85328227645347   11.21635826500106
C         9.91700762008092    9.08205558224974   11.42340733713334
H         9.24228811671130    8.23833867803232   11.42491795375490
C         9.44424721456466   10.35608162162447   11.62731840317310
H         8.38860176463712   10.52017558965643   11.78878732161332
C        10.31772580351238   11.44386030257391   11.62768246790071
H         9.93388497855022   12.44007252164071   11.78846576620131
C        11.66255606208348   11.24344345890957   11.42300813518889
H        12.35943382574017   12.06796267662803   11.41829165654422
C        12.16053783440670    9.95475605006262   11.21652264533578
C        13.59210709733064    9.75095884877195   11.03096759988867
C        14.15662322389260    7.82958738746260   13.94786233807796
C        13.00467559325900    7.04969419793007   14.01687392779613
H        13.08595844454375    5.98545910509851   13.83456688780211
C        11.78370057249283    7.62355162576505   14.31373420035134
H        10.89676087465913    7.00930011046661   14.36907996807964
C        11.69929581113035    8.98927661226161   14.53290522108706
H        10.74574282423588    9.44464450220800   14.75609845597200
C        12.83957203149451    9.77093089354581   14.45824345887454
H        12.77403577477278   10.83617389202013   14.62479198394108
C        14.06680332271792    9.19765345398694   14.17153522065792
H        14.94907681629317    9.81490777552916   14.11009887855817
C        15.99413002419197    6.12253004538222   15.21768661510860
C        16.85488023114523    5.02982268337658   15.27004176794239
H        17.28816054158985    4.65901865653068   14.35167169630853
C        17.14336080331482    4.42797055046223   16.48165882603998
H        17.81055717861095    3.57846814543321   16.51703802986834
C        16.57720504387191    4.91182103337587   17.64991970854204
H        16.80051337863548    4.44101200357014   18.59639624549833
C        15.72398265815114    6.00219951658824   17.60311370856311
H        15.28429366601834    6.38338836703492   18.51364271043373
C        15.43207311699952    6.60868300799405   16.39442552116690
H        14.76620235670286    7.45944892599589   16.36463529773890
C        16.98704863305027    8.19212598605631   13.57590607894011
C        18.20652665444700    8.10112358054930   14.23131779319316
H        18.39977644939004    7.29319548244216   14.92056311978869
C        19.15592963737602    9.07531444261892   13.95536887378386
H        20.12364503265527    9.04303092146154   14.43616009451091
C        18.86545628898252   10.08808697657915   13.06304829821526
H        19.58244607918617   10.85351629938715   12.82074385611812
C        17.59769842007881   10.10526916451543   12.46920385747159
C        17.85530346700291   12.13999207796756   11.10070187668605
C        17.01932817815561   13.09840807175881   10.24492159855729
C        15.87099496336420   13.65838035710851   11.09148634063182
H        16.25389775286196   14.10651550083123   12.00637514692865
H        15.16190782254359   12.87746160260807   11.34999385188413
H        15.34470627296540   14.42636951173138   10.52797663369259
C        16.46028320489014   12.35833957337033    9.02534988860929
H        15.97246613780965   13.06946783080461    8.36147903074495
H        15.72498037598373   11.61672050118115    9.32357786360785
H        17.26084387357115   11.86928600208546    8.47394014209000
C        17.92671164581548   14.24012480863134    9.78231066928068
H        18.34143156672822   14.76438040990242   10.63953465250339
H        17.36583626574356   14.94623712674192    9.17458101041376
H        18.75504512576688   13.85036675606283    9.19605794164982
C        17.94081157190780    8.77985711499719    9.28686019849233
H        18.35324337332893    8.35115118897791    8.37479833576935
H        18.63088717189219    9.53483977662006    9.65483256328005
H        16.98250492741389    9.23891411385301    9.05722306571283
C        17.75276621835850    7.68012712867025   10.31338570007487
C        18.90690319826123    7.15182021410102   10.88841356602351
H        19.84486748428796    7.58269388091936   10.56995015042244
C        18.98672219441079    6.11305687921967   11.82334141541601
C        20.38191642466521    5.74952217700869   12.30098502044231
H        20.86541451948129    6.62403066306390   12.73063992339519
H        20.98212701381878    5.40189540329416   11.46274056624336
H        20.32108605447585    4.96277800732263   13.04933749175203
C        17.67368229274168    2.91491911270195    8.72873932980842
H        17.08293880020149    2.11110871076846    8.29638143237358
H        18.66087330825142    2.52552545222270    8.96962529761262
H        17.77275421793611    3.72260860418041    8.00741097511437
C        17.00664940217504    3.44029606266619    9.98833228244239
C        16.68873690411240    2.49300799335818   10.96837820825004
H        16.94214794195369    1.46635682048197   10.74659209057203
C        16.11168875764971    2.73865666015134   12.21654159373736
C        15.87754523973439    1.52736693488650   13.10452571463803
H        16.79440136263763    0.95371594823131   13.21340096386969
H        15.12094827657883    0.88556494250636   12.65689335561198
H        15.53545794394129    1.85599523099825   14.08295964527070
N        13.99102520449958    8.45317160523601   10.89292646941769
H        15.00360848292359    8.27061273711492   10.84101989835766
N        16.69295691438938    9.16307852325757   12.72138369881768
N        17.15238885335731   11.08303666138333   11.60340585346869
H        16.17263159958952   10.95107485477700   11.33570316637372
O        14.40948610367827   10.66692780773302   10.98171947796313
O        19.03747968383468   12.31634511668846   11.31008324358866
O        16.55663579189477    7.35389275522354   10.55208246431625
O        18.04676290550462    5.44665391532682   12.31992299442412
O        16.79580446900174    4.67529325582630   10.02398230292795
O        15.74252326003492    3.83997381617557   12.70149585479070
P        14.00842147153096    5.75944744457352   10.73300164544627
P        15.69566013234147    6.91278147599431   13.59898702436894
Ru       16.06454277445730    5.65888652559202   11.70421468526973

