56
CSD_code = CIGNIS | q = 1 | S = 0 | Stoichiometry = C22H29ClN3Ru(1+) | MND = 9
Ru        1.51581705966376    9.60515189167241    6.18559929619189
Cl        0.81618064176348   10.84049144757473    8.04380199166965
C         1.36416919082964    6.56244136879631    9.07718891195555
C         3.70786870647336   10.27602950592245    6.11586637665051
H         4.45880614328974   10.39265521074405    6.89024088281566
C         2.04307553826045   11.24660599812336    4.64753190582470
H         1.50361809232169   12.11164926914899    4.27719503531731
C         2.96875529406038   11.41060657406095    5.69785991924647
C         2.70929709005559    8.89098090333547    4.33575867628184
N         2.06841890841023    7.43390548305545    8.31433920272099
H         3.04636630049412    7.66564253997414    8.41417086122630
C         3.57694087834508    9.04183194558941    5.44528344275418
H         4.23601250880065    8.22340346017054    5.71709907783892
C         1.91351887571298   10.00278840800653    3.98479618888264
H         1.26815618016021    9.93194036563027    3.11381935108213
C         0.04821405574546    7.59596795278393    7.61924525392433
N         1.29341922875038    8.05578737334889    7.43248495877042
C         0.05555697273535    6.63594761343587    8.64460118007538
H        -0.78461522902570    6.09165420696505    9.01838295948639
C         2.01488429202536    5.73525906491094   10.14604769970273
C         3.15682861949649   12.73071579689568    6.36445920259363
H         4.18897966846286   12.86407441492884    6.68067828681486
H         2.52618848217597   12.77615857313872    7.25621181217962
H         2.86885662216577   13.54794863124339    5.70785149610582
C        -2.64979745550922    9.68767378491988    5.24040537815346
H        -3.28595284075285   10.29534088761344    4.61823517648879
N        -0.44894293068917    9.20040689570511    6.00658453345072
C        -3.17913596629329    8.68035750391301    6.03896265372656
H        -4.23952269909547    8.48592221950235    6.04770474714408
C        -0.95881760148691    8.23128966688612    6.80324806672572
C        -2.32103815668937    7.94557454961879    6.83437851908850
H        -2.68412183592902    7.16870956276484    7.48678623054144
C        -1.28678576871687    9.91539391914528    5.25858757124125
H        -0.85442136562204   10.70997562994638    4.66402543802811
C         4.00830008245424    7.28692787426055    2.92388049001191
H         4.75669023746880    7.08723112432551    3.68661668036993
H         4.35132344262304    8.11769231734642    2.31187960033875
H         3.92536874089015    6.40749341663939    2.29159663532258
C         2.64697096638252    7.60370101410765    3.54914432315156
H         1.92025719882723    7.73486371579009    2.73995408008855
C         3.11471463433459    4.87150385903238    9.51257037610418
H         2.70117474358011    4.23877983573929    8.73061321327525
H         3.55624564638347    4.23089517403594   10.27056040320106
H         3.90769304901360    5.48113478333595    9.08519687349973
C         0.97304108805634    4.83176211743124   10.80754805677978
H         0.18749664834503    5.42414190497991   11.26841675980812
H         1.44531220870492    4.23363042464585   11.58158809378418
H         0.52827949320710    4.15754808760969   10.08041718222707
C         2.62194695376333    6.67409528448011   11.19796014246823
H         3.41079966643571    7.29308722046939   10.77699679165605
H         3.04848168895874    6.08853760503087   12.00741700332899
H         1.85724709843490    7.32584266054456   11.61297872715004
C         2.16495502493104    6.45253314602976    4.43707240543784
H         2.89088182309205    6.22847984215990    5.21567574684552
H         2.02492694266894    5.55644234610154    3.83897994257571
H         1.21231512105233    6.70839362643378    4.90520418787591

