110
CSD_code = CIGQOA | q = 0 | S = 0 | Stoichiometry = C36H70BCuP2 | MND = 4
Cu        8.18940519341930    6.10110816590400    5.61476776797917
P         9.52560961532944    7.19588373521680    7.19127187031638
B         7.21720768642922    3.41526093400833    6.71465983343470
H         7.72087538984652    4.67155742234135    6.07160906853754
H         8.08050884685884    2.63857738239705    6.48092135552362
C         9.90485958369732    5.74479805990272    8.29536363096292
H         8.97260150080603    5.16949011202904    8.19356600597915
C        10.17114071772670    5.93709391944887    9.78774452753984
H        11.15385697573543    6.37802464304057    9.95570991924579
H         9.42760977133283    6.59121016983020   10.24597370479617
C        10.13309240763486    4.56472154666975   10.46069202342304
H        10.30035914608622    4.67476240396441   11.53517648297791
H         9.14745773106763    4.11736508581567   10.31637228379751
C        11.19438955208874    3.64669220751331    9.86014488930395
H        11.14450071992295    2.66463641778243   10.33433401835719
H        12.18647835598289    4.06258347933292   10.05965892127530
C        10.99592217631862    3.50472203693160    8.35340474230845
H        11.78630052037537    2.87901634864731    7.93206998870566
H        10.03816148068920    3.02223363898448    8.15192688997283
C        11.00446764705265    4.87607876180028    7.68400254881564
H        10.82905758259820    4.76621384873378    6.60960292556336
H        11.98254277300006    5.34280036892345    7.82921505966108
C        11.00309237318274    8.36502257631058    7.19399755600288
H        10.57672723087932    9.30805008053541    6.82070732086171
C        12.04499727254504    7.91062132287071    6.17127698631047
H        12.54524114495856    7.00668986272448    6.52122964881889
H        11.55402585810284    7.66669128347343    5.22503877472498
C        13.08464012275225    9.00966616429748    5.96272415649779
H        13.83407437115791    8.68226709073020    5.23830036083062
H        12.59685683114388    9.90265533376995    5.56246254163834
C        13.76102765321619    9.36212849682057    7.28451611766614
H        14.31274714556652    8.49343545592787    7.65154236278393
H        14.47779504143659   10.17153045207080    7.13089689506817
C        12.72229704887413    9.77542681039916    8.32334276787394
H        12.21629792917024   10.68576907295195    7.99174098510729
H        13.21441428932919    9.99508889968969    9.27343398952564
C        11.69595245025077    8.66068382269470    8.52049512986725
H        10.97329550017714    8.95496161831499    9.28334181804541
H        12.21899048837929    7.76917379113672    8.86707145511599
C         8.29964656594283    8.17256563706766    8.20662798714544
H         8.79073618584934    8.55290470135009    9.11108155163720
C         7.11508562967945    7.29103487837246    8.60329889708988
H         6.65937645018679    6.87380236432914    7.70076210251695
H         7.44328462583222    6.45031031128897    9.21382399713424
C         6.07869926001972    8.09523152758097    9.38379830250397
H         5.24251117099196    7.44729299273523    9.65292529667586
H         6.52899648339541    8.46208374065346   10.31041952361166
C         5.57778084630512    9.27700613159952    8.56216160008355
H         5.06419605067754    8.90407678436785    7.67480158298240
H         4.86123382390094    9.86149826134125    9.14334585141046
C         6.74779183804786   10.15948380237590    8.14183651132024
H         7.21256552705876   10.59150444123017    9.03207251569970
H         6.39073154400270   10.98494701581909    7.52093854930455
C         7.79126253065798    9.35249365690407    7.37450395905742
H         8.61623058658963   10.01336994439062    7.09782195311829
H         7.35258522432956    8.96218305436179    6.45011559205887
H         7.10079988714512    3.71332828865467    7.85877481448177
H         6.19392142354093    3.21611863452537    6.15201243491221
P         7.54409486851951    7.16869037997852    3.70432797259192
C         7.23306987032575    5.74544918058587    2.53828854541075
H         8.14744133024539    5.14844954953369    2.68489701090679
C         7.07827796421176    6.00831269484456    1.03886760996689
H         6.13433972851547    6.51270310774139    0.83549586328433
H         7.88261464471101    6.63805355680179    0.65630983501029
C         7.08792908698665    4.67174215553647    0.29615327410987
H         6.98450672463309    4.84877743010543   -0.77714418938928
H         8.04489005842601    4.17076396032407    0.46133831846637
C         5.95618027952038    3.77326980401981    0.78675526445444
H         5.99030472061082    2.81585163429409    0.26324387586119
H         4.99696097944186    4.24423540606155    0.55607066020684
C         6.06206578257112    3.54994945299797    2.29273763052031
H         5.22479399205729    2.94250511860416    2.64042969716361
H         6.98147959098511    3.00850511256232    2.52286670937303
C         6.06827291104987    4.88534089206973    3.03074884425649
H         6.16407545941844    4.71166658223275    4.10553260328961
H         5.12214234969051    5.39694778062436    2.84068420451834
C         6.02533789615203    8.26133248707309    3.75318417377705
H         6.41159622403366    9.21237069660900    4.14968328007310
C         5.02186265085125    7.72900527096776    4.77796423367962
H         4.56182879218858    6.80939843175707    4.41622767460071
H         5.53831397639919    7.48565175252931    5.71058316516328
C         3.93327736648055    8.77047767091153    5.02605364832929
H         3.21115831201389    8.38798499396750    5.75038047449814
H         4.38094510591894    9.67668486989646    5.44329615600410
C         3.22357600964478    9.11835966397205    3.72039242131228
H         2.71478126768601    8.23031236785581    3.33834995826100
H         2.46658841986498    9.88415471911052    3.90121141813633
C         4.22479880836853    9.61363499408831    2.68042946842184
H         4.68598718014680   10.54050266630801    3.03092667981264
H         3.70954511354498    9.83208627951143    1.74240071196219
C         5.30813484372321    8.56279160624366    2.44006560601429
H         6.01083314138100    8.92424114122296    1.68671409552964
H         4.83247062375627    7.65660560893950    2.06356992848133
C         8.75183476182893    8.22789511579952    2.74290823014616
H         8.28287460808096    8.57788883223952    1.81583223674151
C        10.00113750660071    7.40923625293214    2.41348958450384
H        10.44091763394431    7.04708655140329    3.34820200949469
H         9.74925329742412    6.53562718412031    1.81144532693499
C        11.01823056521282    8.25927424058115    1.65619492076671
H        11.90216291482147    7.65980816432616    1.42861115076542
H        10.58091526399812    8.58134761778121    0.70738032719673
C        11.41670141369716    9.48288779120749    2.47294361372738
H        11.92979237841450    9.15744441784027    3.37850701430467
H        12.10943436659761   10.10403980025111    1.90128652348145
C        10.18257611496171   10.29489656019451    2.85035254551089
H         9.72203167774133   10.69469826109516    1.94306594176924
H        10.47143064131866   11.14245871108877    3.47618943018161
C         9.16224570334853    9.43333120104108    3.58990914762432
H         8.29369452182098   10.04857530536305    3.83386232216016
H         9.58917677682113    9.06916597994397    4.53015250267731

