89
CSD_code = CIGRAM | q = 0 | S = 0 | Stoichiometry = C30H42BIrN6O9 | MND = 6
Ir        8.54486241894495    2.49472864569341    3.29703569308599
O         6.40001420460671    2.46224427207270    4.00859136730215
H         5.79032995222844    1.79433877288607    3.62022329180658
H         6.39783643047162    2.33950842428197    4.96296811841047
O         4.78931168289722    0.50012221248464    2.97299720886651
O         5.00321332986136   -1.68620214466606    2.52105228468452
O         5.03242058265862   -1.07103908172614    5.35396468663965
O         6.34575544588722    0.03928260195761    6.79466487650288
O         9.76062672640318   -0.27269852324839    7.15438853231999
O         8.40643961281816   -1.90418425259793    6.41558205931508
O        10.90028446237499    2.35461082349518    5.75277379437569
O        11.36823606872421    0.30058062162901    4.98590284887107
N         7.96981197880831    4.14588229639764    2.06060739730879
N         8.80442953212806    5.19924563322602    2.11034412380827
N         8.79738763362587    4.03398564955733    4.85495769318631
N         9.49996407661344    5.11118658343843    4.48628173650197
N        10.42802681393842    2.76239519741926    2.63906045723819
N        10.90571527581191    4.01820080690501    2.73816842516532
C         6.96008459657182    4.46541076794930    1.25557600913036
C         7.15931885626642    5.75934917302809    0.76649908140993
H         6.52311726849143    6.29962028346944    0.09500147188355
C         8.34046722404103    6.19447624548089    1.33336803920949
C         5.80067250303773    3.59548341116733    0.92083289328429
H         6.05076680987266    2.92800443721587    0.09631851643334
H         4.96628667675083    4.21950860134609    0.60716037105777
H         5.49527218618244    3.00064764215712    1.77474748538057
C         9.01763668189461    7.50516339659957    1.15126090894650
H         9.08107942073955    8.04268333235023    2.09561709081671
H         8.45320426271764    8.10651561821957    0.44339333360227
H        10.02810042622358    7.36821744022138    0.77086325992087
C         8.46179560400096    4.18228807920224    6.12989213869457
C         8.95867165269532    5.40453189458390    6.59294330192225
H         8.85785735369766    5.81066675539464    7.57913218950666
C         9.61879934149739    5.96603339198925    5.51880612151221
C         7.67633371932622    3.19949305108467    6.92537503996432
H         6.60482620405750    3.39281468052312    6.83485734355331
H         7.94355410016278    3.29829204138057    7.97498459972858
H         7.89799125895569    2.18286408080333    6.61289237265213
C        10.34010989740498    7.26404471594515    5.44762112276494
H        11.38558254858055    7.10925375849515    5.18754859504595
H        10.28902788109536    7.75888458711429    6.41385845954572
H         9.89625661980427    7.91489443942734    4.69569904049302
C        11.43385954644416    1.96799602407390    2.25448393374243
C        12.58514850891091    2.74295517382382    2.12085397876931
H        13.55842233618727    2.40092673426221    1.83281940741506
C        12.21362732607012    4.03484673497129    2.43955930108881
C        11.35466335808468    0.51134503030470    1.97033176189890
H        10.77204520082643    0.00213718567232    2.72881436107713
H        12.36006035223114    0.09820366628276    1.95611405817931
H        10.89765349082390    0.33556949926439    0.99877494765415
C        13.07056205581413    5.24821088691011    2.47013062048726
H        12.72803840756781    5.98584013974892    1.74702806199954
H        14.09409374076136    4.97171690493079    2.23166959532015
H        13.04822386947087    5.70393817005643    3.45754833029196
C         8.08381556372694    1.09704176497955    1.81608105530272
H         7.12626943510801    1.40460135771420    1.39281807779575
H         8.79980374005389    1.11441341648571    0.99234570669302
C         7.91499961883509   -0.37634421748494    2.23893425484981
H         8.85622540184173   -0.74338635508201    2.65276781878913
C         7.54177399980837   -1.23240683892760    1.02469795684375
H         7.32922158408843   -2.25542590136621    1.32533750572752
H         8.36820069787246   -1.24200348809418    0.31816525342830
H         6.66680081039759   -0.83082705262735    0.51808577178502
C         6.89247608473357   -0.48652802912499    3.32529161328161
C         5.45052771415739   -0.52507569227150    2.94480728090269
C         3.61438335598151   -1.75715181732601    2.22436667917776
H         3.04120164007925   -1.62848107546082    3.14408127247279
H         3.44243735659218   -2.74270122811513    1.80018628964285
H         3.33527081381109   -0.97458848459677    1.51568202069212
C         7.17949417981194   -0.33301651968108    4.63582211120447
C         6.08033081183753   -0.51946394048225    5.60591509842765
C         5.35798956404340   -0.12444894306329    7.79904241278619
H         4.40194573872926    0.28186907534409    7.46093062294364
H         5.71977336557942    0.41644624612327    8.66974389640315
H         5.22545956905038   -1.18302482028769    8.03126947383672
C         8.49655053705003    0.05278703775924    5.14619175753912
C         8.97315091831521   -0.68168272713076    6.33613946555382
C         8.78205542511195   -2.68164657168913    7.53854878207401
H         9.85643536373660   -2.87807424275413    7.52172629958798
H         8.22329144686383   -3.61171620268965    7.46693940904369
H         8.53861068287763   -2.15535515242322    8.46461117783005
C         9.19641682705936    1.08795509703423    4.61758767290159
C        10.53708022528012    1.34001657237630    5.21110283325067
C        12.67476200435165    0.44335618939320    5.51482319142646
H        13.12817104849611    1.36982172961087    5.15447158496996
H        13.23945871741478   -0.42086187056443    5.17350050143982
H        12.63111609840000    0.46917245983063    6.60540239212113
B        10.01478284581147    5.23426936024163    3.05699639432612
H        10.62193929702740    6.23164434969370    2.90804462517560

