216
CSD_code = CIGSAN | q = 0 | S = 0 | Stoichiometry = C76H106CoN16O16P | MND = 6
Co       -4.06217994967920   -1.67940404528588    5.97594325087749
C        -5.77156238121607   -3.60744149990613    4.80062731645011
C        -7.31096555781501   -3.92062221010905    4.90604545463578
C        -7.93810234272951   -2.50465967626323    4.79420199477957
H        -8.84226048501818   -2.46392264430653    5.40245869394773
C        -6.84139849462509   -1.64755396600191    5.37041191403898
C        -7.05465400733222   -0.32475974874620    5.86388030202505
C        -5.98909227510791    0.51360178966084    6.07258218697459
C        -6.02451247530740    1.99550018385405    6.45084906084532
C        -4.64250373540158    2.44805906317753    5.92409229479430
H        -4.22587467910627    3.25904671233363    6.52268478140077
C        -3.87165431891719    1.17153397259450    6.08353107447800
C        -2.52277583275357    1.13076735304228    6.35614938017592
H        -2.01176972457595    2.07570692969448    6.44113131544242
C        -1.80460002569946   -0.02393671090704    6.61628643716656
C        -0.37881379032583    0.00719145038030    7.11857835972947
C         0.02433779559272   -1.47793111551054    7.00320749074461
H         0.52919529828670   -1.78606546469009    7.92053574598593
C        -1.31128132756999   -2.16977289449384    6.83686509726035
C        -1.45218602656556   -3.53705633432995    6.88838873204324
C        -2.63397807897537   -4.16407949758790    6.40038470643440
C        -2.86562992287959   -5.66856501228322    6.24662194655741
C        -4.10063455009023   -5.66787272058565    5.30082043181604
H        -3.73235489740059   -5.55442491192770    4.27864924854461
C        -4.80037769192061   -4.37517263090093    5.72808921789999
H        -5.29953298267541   -4.55084648231850    6.68820016884896
C        -5.25542301578158   -3.68730671725781    3.35988747163566
H        -5.72204437711308   -2.93340788771004    2.73399159143627
H        -5.45183372220397   -4.66847105523167    2.93997644560058
H        -4.18279888592585   -3.52032594614711    3.33180040243921
C        -7.84537746466464   -4.90624490676832    3.87403759247384
H        -7.28717476911766   -5.83826075155970    3.89333612438425
H        -7.79666015707258   -4.50945667051809    2.86658826537320
H        -8.87994156488030   -5.13749246035187    4.11541396591742
C        -7.66228848758349   -4.42470454376328    6.32741320263942
H        -7.35725535504343   -5.46741605793274    6.43381333784539
H        -7.13971206221219   -3.81589932980270    7.06745039967686
C        -9.15234920684868   -4.37106054908763    6.64288441923459
C        -8.31763643202707   -1.97607299079744    3.40105400215082
H        -8.21109020047926   -0.89041947419149    3.39724485223142
H        -7.64365213889473   -2.34934255587095    2.63342565822997
C        -9.75201405866746   -2.29617033231309    2.99194451473568
H        -9.94991095157879   -3.36633888336449    3.04995491353074
H       -10.45859602827115   -1.79091458458959    3.65536874232971
C        -9.99811956980507   -1.82366891236345    1.56220847280965
C        -8.47365701503015    0.10549830010566    6.12433493098099
H        -9.09261829494251   -0.75390775900886    6.36397737828694
H        -8.91400716993669    0.60684190844966    5.26337986289313
H        -8.51509192837428    0.77810439168316    6.97335003405618
C        -7.16003043133142    2.85753430824086    5.90646712994755
H        -8.07272833932687    2.74665859044061    6.48260033074554
H        -7.37252695727182    2.62366401347483    4.86811772580847
H        -6.86276083718477    3.90213949851879    5.96853201663868
C        -6.00804813248282    2.04968067213639    8.00163812120791
H        -6.89823854516995    1.56041470455927    8.39725349796311
H        -5.13263280529819    1.50440285317359    8.36131192205801
C        -5.91314629318235    3.47817499854050    8.51097620688446
C        -4.68747003690789    2.86229517813422    4.44357010232354
H        -5.26885352432269    2.13281508174248    3.88062609754727
H        -5.17788922379271    3.83032017718444    4.34698256238355
C        -3.31462415996413    2.95834067287603    3.78600619398455
H        -2.78804599796918    2.00420385661670    3.85137743392721
H        -2.70552056321207    3.72232220299424    4.27497027509828
C        -3.45963958846609    3.32694098855367    2.31674452303830
C        -0.42482737907214    0.39509261279053    8.60651734919950
H        -1.06144531342924   -0.29254986614073    9.16002141546022
H        -0.81930547530362    1.40106076567801    8.72960871403469
H         0.57744558005842    0.35699385290411    9.02650635999182
C         0.49738391765286    1.00873111543079    6.37059696122185
H         0.17540084861084    2.02339606186475    6.59151290780144
H         0.45204787537799    0.86339693526968    5.29453483070341
H         1.52857866766637    0.91419452388466    6.69640055385087
C         0.93545769510526   -1.86326903095764    5.81680475559833
H         0.74756674648047   -1.21655675647938    4.95974610860692
H         0.69859067881753   -2.88165671576241    5.50743223279196
C         2.42773148099101   -1.82780885730123    6.16286080514983
H         3.00170279629868   -2.05347280700184    5.26448742485914
H         2.71748076971906   -0.84537173971290    6.53266118127762
C         2.75185828816131   -2.84907248775787    7.24031919566922
C        -0.32359074803592   -4.35606091251563    7.44951209079973
H         0.29543350071721   -3.75555531101422    8.10742701794449
H         0.31521340664203   -4.75511623525646    6.66282243572567
H        -0.70293104450830   -5.18529949441826    8.03672689098118
C        -3.20042925109463   -6.26393441426770    7.62397166509585
H        -4.13000596331234   -5.85737526516557    8.01550570901199
H        -2.42186073006825   -6.03494639926970    8.34424503475992
H        -3.27936388875352   -7.34657361643634    7.55881409107945
C        -1.69800056238389   -6.44373823551141    5.61814442973540
H        -0.89591456235289   -6.54974579682161    6.34530372634932
H        -2.04874077005923   -7.45065725430505    5.38754055266011
C        -1.14480026537020   -5.80792176550893    4.33021775020726
H        -1.67455573693355   -6.20065835098766    3.46406927211921
H        -1.27371292164797   -4.72507886856175    4.36501034921597
C         0.34102721112412   -6.11041514166546    4.22891725115488
C        -4.95823437338738   -6.92781419276916    5.33055578858516
H        -5.11546672582915   -7.30274022435057    6.34017173971570
H        -5.93699155663280   -6.69771849197427    4.90563164913407
C        -4.36556292617803   -8.01361917917307    4.43945389635929
C        -4.74178265246313   -1.88261745264797    7.66210828066166
C       -11.69294149123201   -1.67930791889453   -0.19912833401855
H       -10.80577819130022   -1.58293284613642   -0.82930037400457
H       -12.34789922960313   -2.44874969560257   -0.61711930070011
C       -12.41475808280213   -0.33500100058412   -0.12302547365499
H       -11.73362784483804    0.41661408582573    0.27681421828101
H       -13.27389258451530   -0.40615910845160    0.54667671253702
C       -12.87918999919254    0.15074163859337   -1.50008869360054
H       -12.02376281242534    0.14766020888315   -2.17990160125097
H       -13.63670183458419   -0.53640298349499   -1.90770638873374
C       -14.76479646352940    1.68920131337684   -1.04183493241975
H       -15.18704744796461    0.75150925828357   -0.68340270131939
H       -15.37425030329418    2.08565556915287   -1.86624259423878
C       -14.69082925952293    2.69729851043274    0.09498293544880
C       -13.99764410621123    2.87847217715658    2.34357019642789
H       -14.30776147626403    3.91492070489328    2.17804597624795
H       -14.48355862209325    2.48623541590880    3.24075050628229
C       -12.48163730965145    2.77827762345057    2.43621176399929
H       -12.11260787708155    3.45454571614557    3.20236174437554
H       -12.04134918568086    3.04004627463872    1.47580229027708
H       -12.18595300371609    1.76125556467669    2.68262536213063
C       -12.78469720469109    2.50385049891018   -2.24149413383635
H       -13.28198942372214    3.45396416270221   -2.02216344677677
H       -12.91400582936348    2.29239165539128   -3.31868956636640
C       -11.31666496217106    2.66972863049782   -1.93680776098975
C        -9.67630353554991    2.74635222922275   -0.35615788939214
H        -9.43922843733670    2.67194025116217    0.69734594386726
C        -8.68477344026741    2.98024238208111   -1.29537803728055
H        -7.65669616185181    3.10116834526319   -0.99527684608220
C        -9.05948278777054    3.05769603137274   -2.62693960745994
H        -8.32399201629546    3.23742033174503   -3.39794429553058
C       -10.39451449402282    2.89542209590197   -2.95499629984912
H       -10.72121474516452    2.94481110719881   -3.98297681187305
C         2.00416276541759   -7.63834548829426    3.29823847817197
H         2.00188920258048   -8.72575761594797    3.19179138895518
H         2.60736215389962   -7.34839346975152    4.16095655300333
C         2.57339069841510   -6.99696209304446    2.02296355294832
H         2.70506546876366   -5.92344334515976    2.20147703319742
C         3.91079993367156   -7.60615064960277    1.62814068231348
H         3.78337806516434   -8.66101396458412    1.39665859448415
H         4.63478996956570   -7.49254198601363    2.43165970518804
H         4.27011810562495   -7.09491464718788    0.73952760325409
C         0.47036262148294   -3.64487242237641    1.08977004561519
H         1.03372885166588   -3.39276572906838    0.18522701149686
C        -0.94043488422155   -3.04431113709012    0.98561893886300
H        -1.29856652603067   -3.00193266101854   -0.05079606645986
C        -0.73142455881922   -1.62709800794103    1.56204086612551
H        -0.63031780989058   -0.88644154740918    0.75592873018052
C         1.06427864426777   -2.91702610255864    2.30303464581850
H         0.78964767472140   -3.46983535777155    3.21267148253182
C         2.59971033080575   -2.77220851580954    2.26058587621716
H         2.85755544231412   -1.85835594382451    2.80638761843699
H         3.02303170086392   -3.63564009496803    2.79600388640023
C        -2.14218655016374   -1.68946543526888    3.59844703344572
H        -1.42712997794683   -2.25524983398653    4.16180368915731
C        -3.90926685255365   -0.64672254337525    2.98225454839226
C        -2.98672338800241   -0.57634347237829    1.92256288059653
C        -3.29047623417507    0.07165919201632    0.73448872317983
H        -2.57595577189033    0.11310756801972   -0.07347077846562
C        -4.53600796345158    0.65589419815898    0.60218307370710
C        -5.47707860263934    0.57661354125226    1.65088885164080
C        -5.16697743186295   -0.07658477422550    2.82665386175984
H        -5.89947534154471   -0.14741688498259    3.61043864950162
C        -6.81714320418168    1.22303465147796    1.50326406488863
H        -7.40376629381270    0.72831760982387    0.73051496329593
H        -6.69315293431891    2.27170896592974    1.24018100161194
H        -7.37507576287287    1.16335701468855    2.43510168024774
C        -4.88643554799554    1.39509160320262   -0.64935454270312
H        -5.81453094694884    1.01560188866968   -1.07274303228972
H        -4.09754310901478    1.29975398201325   -1.39092268296122
H        -5.02634003435158    2.45080775017337   -0.41608298562725
N        -5.68638438800486   -2.23365353071365    5.31287474322603
N        -4.68301092119783    0.11134312671157    5.99770820572813
N        -2.29122812279270   -1.26303093823012    6.53896101066459
N        -3.67648447559243   -3.48616148940922    6.01501199270558
O       -10.01973124162759   -4.88323041682080    5.96955166614737
N       -11.23311887218992   -2.11690237226090    1.10126386675499
H       -11.91761559096787   -2.50001638645073    1.73329697002266
N        -7.03314743004007    3.94681017229359    9.10512421129847
H        -7.01655152423965    4.87740808139296    9.48995412649383
H        -7.83980338714794    3.37490624730942    9.27637391830925
N        -2.31411888624980    3.20606446999553    1.60951552681849
H        -2.32249883971857    3.41891505939469    0.62595936764747
H        -1.46264511063162    2.86625463086183    2.01807129540376
N         2.96540498904133   -4.09695266773847    6.78255349249010
H         3.10826315485789   -4.82859168798574    7.46043134427057
H         2.68791864081931   -4.38103728190344    5.85551874156444
N         0.64336233580840   -7.21088201062394    3.53305003446548
H        -0.02265805273101   -7.54537630960164    2.85151211303782
O        -3.69512670403860   -7.77732550548043    3.46149580640576
N        -5.29528458869123   -2.05337855657347    8.65360749475525
N       -13.38247421518586    1.49629791923408   -1.40729934554120
N       -10.95286000575039    2.60077452279683   -0.66225444622810
N        -1.86591899598468   -1.24067760705875    2.36236629076201
N        -3.33391328818479   -1.34424678184795    4.02563073713828
O         0.42384242846742   -5.00923654518257    1.28841798705126
O         0.39565185234790   -6.22417029511752   -0.99987064870036
O         2.56559035742893   -5.06627331290952   -0.11394368787257
O         1.62900705701746   -7.17850457954641    0.99432596015711
N        -9.44515310972519   -3.67927870674382    7.76945037997264
H       -10.39874731928280   -3.67767148682759    8.09502822475531
H        -8.73353307457099   -3.31736692242888    8.38027901418898
O        -9.15621702461131   -1.26235625411392    0.89317216858614
O        -4.92309700888887    4.16475643502631    8.38628102437840
O        -4.49234367012051    3.70362627683665    1.80966761543132
O         2.81451034479886   -2.55979701075275    8.42044391968194
O         1.16970405291335   -5.45627772905934    4.85539036778901
N        -4.66298451604632   -9.27590222268008    4.82363733639686
H        -4.36907642048061  -10.03645515065734    4.23226914345076
H        -5.28831927375226   -9.47886010892123    5.58247387033898
O       -14.72992795366000    3.89163509512622   -0.05409749383864
O       -14.46474766697925    2.07989119470269    1.25404331613099
O        -1.83675720352426   -3.78083362804016    1.77251450316439
H        -1.51291275175274   -4.69739757393938    1.69325490946744
O         0.43291983175428   -1.63150748026598    2.33605256649083
O         3.15079307426604   -2.64839166714667    0.99277943521754
H         3.05535024046649   -3.50983369403348    0.51808755405031
P         1.32333567487009   -5.86753871558925    0.07716743840979

