51
CSD_code = CIGTAN | q = 0 | S = 0 | Stoichiometry = C18H22Cl2N6NiS2 | MND = 4
Ni       -1.24078980952818    0.44114835893202    4.53810697609742
Cl       -2.25667699952079    0.82728147573065    6.26983707963399
S        -2.91691950974331   -1.04875845675471    3.46334454085849
N        -3.72507398345453   -3.43587480377711    4.19551748760316
N        -2.84310725950519   -2.14780729319098    5.87099479654640
N        -3.09297829514578   -3.16718863964424    6.72924979110356
C        -3.18073264938591   -2.27738884756637    4.58654573222994
C        -2.72595106116794   -3.07679723303033    7.95391717444697
C        -3.07030477502228   -4.22120935052214    8.80495852896977
C        -2.24727954143188   -4.62374922065812    9.85559445077684
C        -2.59961770436015   -5.70087517275322   10.64767097171560
C        -3.77856231094930   -6.38803917344257   10.41112354274834
C        -4.60056657952486   -6.00098457663835    9.36462578232913
C        -4.24759609868604   -4.93129369973968    8.56557988254529
C        -2.00901228838945   -1.89964606317231    8.53598541567594
H        -3.91559008284134   -4.12238832003807    4.90984440418580
H        -4.03409356487449   -3.55252621231857    3.24854778626019
H        -2.48937984089296   -1.22474343381296    6.18838256734469
H        -1.31586077630327   -4.11032105130831   10.04162506031972
H        -1.95111926696083   -6.00500643496418   11.45620377648540
H        -4.05516422203875   -7.22233055407112   11.03843467717240
H        -5.52090290602554   -6.53383819616625    9.17554758888124
H        -4.88784047652842   -4.61553824151015    7.75643365480403
H        -1.85893783982080   -2.01562609638148    9.60368294399593
H        -2.58532990993704   -0.98996703980018    8.36488848740002
H        -1.04443964853175   -1.75943082276623    8.04570113673204
Cl       -0.22551183793046    0.82768718921011    2.80615794919856
S         0.43354670529252   -1.04937621826136    5.61339124729238
C         0.69621728853768   -2.27860919720771    4.49057935010326
N         1.23788033177607   -3.43809879546358    4.88243370694902
N         0.36007526436461   -2.14858735738960    3.20575464623754
H         1.42997388197524   -4.12410927140010    4.16801795075479
H         1.54816239227766   -3.55389273813022    5.82910725403609
N         0.60983648729249   -3.16820558570893    2.34761879065303
H         0.00759762671175   -1.22515526308188    2.88806192665562
C         0.24308258846851   -3.07754255039910    1.12289011296767
C         0.58778889075701   -4.22154703537525    0.27142266844688
C        -0.47375938644929   -1.90039265975094    0.54076827542922
C        -0.23606200576944   -4.62489293041302   -0.77829778071204
C         1.76598088030435   -4.93055692305758    0.50944159491310
H        -0.62462918056393   -2.01682324732622   -0.52677961047864
H         0.10320024626888   -0.99097686860682    0.71102921279379
H        -1.43789638926953   -1.75941625546159    1.03166030676071
C         0.11626549660978   -5.70181254678648   -1.57055993806612
H        -1.16852964862467   -4.11267407502393   -0.96272738682373
C         2.11885650097336   -6.00004563877110   -0.28978991790501
H         2.40692031689168   -4.61399126923632    1.31782990047007
C         1.29600754954336   -6.38793628075372   -1.33526188068877
H        -0.53296255932678   -6.00661346513914   -2.37836823808705
H         3.04061845046493   -6.53123373303853   -0.10259597910126
H         1.57326751000173   -7.22129818414092   -1.96362839862309

