62
CSD_code = CIGVEV | q = 0 | S = 0 | Stoichiometry = C24H26BI2N7NiO | MND = 5
Ni        1.63304551139543    4.57502815378421    9.17808706812830
N        -0.02781308522348    4.05201561565488    8.42824388047005
C        -1.28590599083069    3.17505488965332    6.86383356571946
C        -2.12809086807290    3.75992072966327    7.79550316113615
H        -3.19847128002336    3.78725536964528    7.77587174867660
C        -1.29025424603811    4.29282184054761    8.77596276513974
C        -1.64504480975480    2.45854461923955    5.61340137430166
H        -1.14027269319982    2.90432810972768    4.75889268910372
H        -2.71923100051966    2.51013388335703    5.45843366670678
H        -1.34745411917335    1.41319171156739    5.67235909244050
C        -1.64441671862534    4.96727491741276   10.05447545347836
H        -0.74561696899145    5.07391528552182   10.66619860487427
H        -2.37461330295180    4.37203018962488   10.59977707221492
H        -2.07411320026005    5.95330883639663    9.88001671867164
N        -0.02273611710046    3.36193718856281    7.28000351435419
B         1.30252068620839    2.78109552771305    6.73482970903546
H         1.09950209010531    1.99268378505078    5.88445826685447
N         2.04999542743770    2.75702994076521    9.14867786818483
N         1.98901881773574    2.13304691253887    7.95737139734989
C         2.52084451019392    0.90440785705481    8.07313895418323
C         2.91808118290655    0.73785129426007    9.38749312977502
H         3.37558757414137   -0.12713566778992    9.82241683426665
C         2.60001983048706    1.93199353130574   10.03663891519657
C         2.63464369964776   -0.05646116689704    6.94563452442130
H         1.65021184130379   -0.33606301514423    6.57416494830274
H         3.15038002130776   -0.95119082963319    7.28304416100216
H         3.19350112567426    0.38599192821718    6.12353894667407
C         2.77259286929469    2.27231953975137   11.47119904295008
H         2.03389014672619    3.01713762171692   11.76524309605394
H         3.76185475967913    2.69424092325904   11.64066018708966
H         2.66318908885565    1.38195023257722   12.08603659351859
N         2.59137096087598    4.86187707846897    7.14033422973601
N         2.18158667259409    3.93633769386542    6.25423499656833
C         2.69895313006899    4.19656441490282    5.03820401210090
C         3.47202264824899    5.33605871585503    5.15270335641941
H         4.03166303333069    5.82202914205243    4.37936562927404
C         3.37667759256110    5.71628582490521    6.49557378099786
C         2.43893474232862    3.36415956372209    3.83426285406211
H         1.37368672028989    3.32863220282589    3.61213183793431
H         2.78455174993248    2.34364365389700    3.98907998663256
H         2.96211032983083    3.78663563875934    2.98075127029448
C         4.03017706083805    6.87434828102174    7.16479473924654
H         4.37175176035187    6.58781159879934    8.15716205541445
H         3.33232254064233    7.70700478162004    7.26824454185375
H         4.88158633848698    7.21163301667061    6.57877406969700
O         3.08057725510933    4.96972321139116   10.35620291268904
C         3.14771386202966    6.22349716692470   10.58839076457809
C         4.13584058327220    6.82165763737531   11.37223874753234
I         5.55161916375835    5.51078520148689   12.21530230207562
C         4.18551145948169    8.19033911649455   11.57045276125834
H         4.96799848691820    8.60809835561907   12.18580695276468
C         3.25615063627313    9.01914029583509   10.97951665193668
I         3.42880040165519   11.10873419843551   11.30084677523192
C         2.22942330559389    8.50609531539172   10.16828754871940
C         1.25519744286013    9.24974907116973    9.47458682241839
H         1.23911407898638   10.32625428647133    9.55914629253859
C         0.34679073274987    8.59531379534175    8.68535895614196
H        -0.39584341682550    9.14417006554177    8.12785132349366
C         0.36540147611601    7.19752284731223    8.60309114487838
H        -0.35886715313597    6.68393287761850    7.98668218062082
C         2.17623839722546    7.09596081829029   10.00691182872018
N         1.24239322522228    6.46404437683118    9.25740172390806

