47
CSD_code = CIGVOD | q = 0 | S = 0 | Stoichiometry = C22H16CdN6S2 | MND = 6
Cd       11.53970731509232    8.40580588410819    1.82224742084530
S        10.26891740367152    9.65335583095141    5.89567202369255
S        10.35802587569135    7.07759287780136   -2.24683674539264
N        11.51474853517865   10.05196223897842    0.19394540444124
N        13.38477618310274    8.17040015071682    0.31633595520431
N        13.23496605425656    9.11114927231775    3.30876668986480
N        11.96120746615019    6.79412559043379    3.45054984181632
N        10.27296755668673    9.42359205337046    3.14222127746416
N        10.57633654837342    7.09616414133389    0.50792290141392
C        10.61282431206051   11.01987421147378    0.21917216846168
C        10.27406953358589   11.76124194953972   -0.90287202005582
C        10.92231157491389   11.47878539799561   -2.09492999724210
C        11.86673610656171   10.46794024898441   -2.12278651721911
C        12.13021468389962    9.75220081947055   -0.95461179439511
C        13.08027606981142    8.62240002983278   -0.90395667255494
C        13.60303703041386    8.02695539700746   -2.05254835788337
C        14.44952001558460    6.94102544154333   -1.92065879828834
C        14.76193837476125    6.48316875316400   -0.64982980067963
C        14.20013162172036    7.13496690962830    0.43615580610177
C        13.86781568859433   10.26239671685546    3.15748817978345
C        14.47562632615275   10.93530447164309    4.20507368219329
C        14.42657484870865   10.36049394835586    5.46593973604561
C        13.77052882173469    9.15406716072745    5.62785995717358
C        13.16273041540310    8.55631562552180    4.52257586899835
C        12.39376761527637    7.29790890392887    4.61183649415960
C        12.10095759119015    6.67407600983868    5.82488626254532
C        11.34137568740855    5.51750433568494    5.82138648860658
C        10.90153840101406    5.00501856665853    4.61104742898356
C        11.23763770730793    5.68518375422695    3.45033861781125
C        10.26173056999968    9.50669132899029    4.31642828823673
C        10.46957407552085    7.10050819326523   -0.66482342803947
H        13.32617539016478    8.37339970501887   -3.03392190334829
H        14.84877655274448    6.45307946980087   -2.79709922926257
H        15.41343032178646    5.63564998762924   -0.50650578792246
H        14.88652803992373   10.84757677084684    6.31275967318677
H        10.14305101119187   11.19825367265356    1.17976704271824
H         9.52338537079432   12.53313160367786   -0.84428117481952
H        10.69319264345939   12.03308302596649   -2.99288177299089
H        12.38060524273116   10.24006364276196   -3.04194728765919
H        14.40910342749777    6.81844802069301    1.45154535011189
H        13.88597965524126   10.65819099049983    2.14856101940158
H        14.96869324654175   11.88032527949767    4.04092576821353
H        13.72292020146106    8.69966886162584    6.60321028555810
H        12.42655572125562    7.09532782834860    6.76109433564947
H        11.08923298330242    5.03087285136567    6.75181536645090
H        10.30246219359464    4.10937333129466    4.56817443602850
H        10.91283798843966    5.33737874392516    2.47628751657170

