64
CSD_code = CIGVAR | q = 0 | S = 0 | Stoichiometry = C24H29BN8NiO | MND = 5
Ni        2.65523515264718    3.48478089900451   15.32059661659599
N         4.73877599015196    3.82340140207558   16.20287408728841
C         5.96684115308589    4.53750818863356   17.89034982126596
C         6.83053881933696    4.08198214466633   16.91207241105867
H         7.90119344992361    4.06512473480028   16.94856130201359
C         6.00843442300266    3.63652549581186   15.86953014021423
C         6.28798975300677    5.12068632299589   19.21998541297014
H         5.86920227245189    6.12129506498738   19.31488511278519
H         7.36640568341727    5.17673812678388   19.34220207308108
H         5.87520693661856    4.50709925130822   20.01891959425096
C         6.39812104089412    3.04097055249530   14.56324048209508
H         5.56377131567996    2.46807496710973   14.16544029256433
H         7.25841471752196    2.38692082727068   14.68674472029262
H         6.66082704414982    3.81878906279052   13.84448971875774
N         4.71079910310396    4.36961699470769   17.43079229933348
B         3.35587829402315    4.63176531895156   18.09410394975566
H         3.47735836232018    5.06320237933919   19.18372245007066
N         2.02562126695233    2.80120332417143   16.96454209469798
N         2.55055744020429    3.31491347997815   18.09221866138756
C         2.15111730364509    2.58115328835319   19.14553501853546
C         1.33006397910802    1.57524561426500   18.67119479157941
H         0.83650476788720    0.81666021288420   19.24425793353915
C         1.27324463647881    1.75322206850834   17.28728672643572
C         2.55899467482056    2.85418391937643   20.54861795252515
H         3.64362841473709    2.85800342109153   20.63632206704172
H         2.15423928836326    2.08411023050316   21.19972597240652
H         2.18932795985111    3.82372247805278   20.87844223487740
C         0.48659220125478    0.97111725859758   16.29950126021731
H         1.10333462430473    0.18282921556078   15.87149547596830
H         0.16659334185995    1.61947133163290   15.48505905788779
H        -0.38125240795681    0.52378304112497   16.77954573539022
N         2.08963323707982    5.18870822797485   16.01055756858199
N         2.54759110846490    5.60025386463792   17.20217406151596
C         2.06011326623843    6.82368835769043   17.47242315584967
C         1.25436630547765    7.19932941174088   16.41130747453198
H         0.70581201248380    8.11307347112224   16.30586584753595
C         1.29467270834037    6.13100235009673   15.51329824195928
C         2.37664340420958    7.58250463333042   18.71026057757821
H         3.45301771346170    7.68991773886362   18.82959221409207
H         1.99143032826710    7.06434941085378   19.58675554209415
H         1.92489871653835    8.56941581532548   18.65873187525719
C         0.58573093141789    5.96415450000276   14.21701123767380
H         0.61807214767711    4.91423372767527   13.92055748530243
H         1.05825205785661    6.56185521971168   13.43809965426612
H        -0.45184195904570    6.27901863141185   14.30956780553529
O         2.65444361729674    1.76327017790617   14.54484222315757
C         2.77572684887381    1.81671011485088   13.25588749693409
C         2.63421826039353    0.72093965011452   12.40449222750806
H         2.38682273400648   -0.24175495898327   12.82459531702339
C         2.82043669339229    0.86638260092471   11.03232304592478
H         2.69335876046388   -0.00129888023353   10.40001731019734
C         3.17354100936035    2.06776727683539   10.46427270160751
H         3.33354803943270    2.15527628823922    9.40034735718322
C         3.35012656829760    3.19803892047761   11.28094119131436
C         3.77185072563312    4.46792633320904   10.82798853311126
H         3.94095956830208    4.63005307638543    9.77292835804764
C         3.99765531193560    5.46085834680822   11.73255259527645
H         4.36129315949226    6.43028429829962   11.42448918132684
C         3.75785497314714    5.24158602317303   13.11409291343636
N         4.00583397674584    6.24451436875698   14.00709275047222
H         4.09006061063954    5.94873013241419   14.96854535128735
H         4.61474631914984    6.98775993118995   13.71043390739798
N         3.25835328442709    4.09655960377441   13.55384092989062
C         3.11511655769689    3.06949071758713   12.66565840024472

