33
CSD_code = CIHDAB | q = 0 | S = 0 | Stoichiometry = C14H12Cl2N2O2Ru | MND = 6
Ru        1.29558116250373   -0.93827397261338    6.00121328149033
Cl        3.45863241941904   -0.36773363231770    5.14632453441372
Cl       -0.77516978564758   -1.10806233723406    7.18886701555954
O         1.79554359578015   -3.89479709092081    5.95070340052924
O         0.05398107939608   -1.29873162973233    3.29553566098343
N         2.11559638696095   -0.58726281078788    7.82097772366133
N         1.01419178851215    1.06421136070514    6.13313273564705
C         0.52350080163180   -1.14689032682600    4.32337165484691
C         1.60975675201346   -2.77008421622285    5.98277283303975
C         2.10805782341376    0.69960305073161    8.20438642971454
C         2.65260730801499    1.08692719739442    9.42870745125874
H         2.64494730025331    2.12185066762179    9.72804094038760
C         3.20446492464756    0.13441969480551   10.25991749507871
H         3.62990883858690    0.41946768713737   11.21054553204174
C         3.20735260509755   -1.20061899434349    9.86296577155953
C         2.64680878775863   -1.49815049249312    8.62701763897004
H         2.62976291445320   -2.52433988747677    8.28036843286637
C         1.49006795534894    1.62818036062256    7.25495330677750
C         1.38036072887272    3.00197482929040    7.46986044410075
H         1.76758366943301    3.44736478949120    8.37120597154427
C         0.77085048205878    3.79311284876932    6.51838965466788
H         0.67887177003221    4.85809808612020    6.67097837654574
C         0.27280396005152    3.20590183424135    5.35772538075558
C         0.42729572372257    1.83176630056222    5.22315325131366
H         0.05519490749623    1.33582714734426    4.33484163058558
C         3.78631336241382   -2.26791540331745   10.72958460899540
H         3.72850248392869   -3.23869963843594   10.24595873288176
H         4.82898925915609   -2.04689364449379   10.95266484249996
H         3.24765402622221   -2.31492327740565   11.67516752985570
C        -0.39809062528770    4.01838788078386    4.30171804473687
H        -0.73051323837108    3.39235654135276    3.47878216956527
H        -1.25982449315838    4.53757848022216    4.71880366069364
H         0.28761532527153    4.77124859744683    3.91546386243528

