68
CSD_code = CIHGAD | q = 0 | S = 0 | Stoichiometry = C26H36HfN4S | MND = 5
C         0.15739018033875    2.57178128530879   -0.27675459833953
C        -0.22015809172930    1.92653381037912   -1.44889654733799
H         0.04537193769177    2.33479279868167   -2.41136272594647
C        -0.93896398781180    0.74202114015484   -1.34374696621228
H        -1.23572466035093    0.21118091566860   -2.23653870108146
C        -1.27625594352476    0.24093444942004   -0.09937878297876
H        -1.83909999717283   -0.67308920937335    0.00750887245729
C        -0.87164755224693    0.94895776806545    1.03563036715256
C        -1.13228639036514    0.60948823440578    2.40300250024862
C        -0.68554223819419    1.36325210872775    3.47088094585092
C        -1.16919326283729    0.76946230199358    4.67130936901799
H        -0.98174408848087    1.16472761170782    5.65767812758769
C        -1.91394582254998   -0.36036293119644    4.49762062096169
H        -2.37556224804035   -0.97080329472042    5.25132463715161
C         0.91965616326891    3.87318677368301   -0.20979020954985
H         1.85180038738663    3.77477778991644   -0.78896630338094
H         0.30510587229145    4.62137532604717   -0.75085647175596
C         2.50002928141367    4.70237290754197    1.39943046919692
C         2.81504287722381    6.07437601690579    1.31580376372451
C         4.10244329202201    6.49483372722688    1.60877497066327
H         4.35358847673775    7.54312161005772    1.57086291580239
C         5.08745040155452    5.58167297650723    1.94008352433845
H         6.08993147431346    5.92310419234726    2.15346309670051
C         4.79093467149311    4.23375323276715    1.98986120587235
H         5.57472824552731    3.53235544202921    2.23322807499507
C         3.50605704659056    3.77411352028785    1.73423662942044
C         3.20446974328708    2.29022164001666    1.79415372259591
H         2.10521134133268    2.17097302543824    1.87439155111199
C         3.69654271057398    1.58662077276549    0.52359330912141
H         3.22311144499620    1.99755037287800   -0.36499236492591
H         3.47281688180644    0.52217303841491    0.56878787282428
H         4.77320509444624    1.70925104165514    0.42118271732246
C         3.81947453722236    1.62403272674220    3.02682971918902
H         4.90160425458726    1.55741711505427    2.94104303671258
H         3.42992509849190    0.61301859621896    3.13661814994550
H         3.56881953934334    2.19822636623022    3.91405121441888
C         1.72326341736234    7.04589281004661    0.91936041450010
H         1.12468465028349    6.56057538059452    0.14333058528853
C         2.25388052226596    8.35932971863505    0.34541728645112
H         1.43097252221589    8.93063223615022   -0.07981454280750
H         2.98437081487333    8.17475593317785   -0.43939030424398
H         2.71523056608275    8.96816690556702    1.11932674010928
C         0.79661577399899    7.32498818507594    2.10789193600601
H         1.35865814857724    7.76928218604677    2.92731380309082
H         0.32871933023648    6.39868605292806    2.45161603034899
H         0.01536145411948    8.02233355417893    1.81109214220834
C         1.89436951754047    4.97270805309241    4.70907958668137
H         1.05420077360694    5.44284666979164    5.25260433515909
H         2.10259441301161    5.55008004776145    3.81026524455494
H         2.77895974585033    5.03700573711921    5.36389203098780
C         1.49557381520716    2.80628656524484    5.56313985848371
H         2.39722170115534    2.90851903598772    6.18990313994358
H         1.38029304552361    1.74908937904162    5.31647974857423
H         0.64117280155633    3.12416420009218    6.19112047000385
C        -2.12505901936854    4.46670154940116    2.03765607152921
H        -2.60465219193879    3.46640986004431    1.98828139968619
H        -1.61931097236939    4.66960908216912    1.09097612256488
H        -2.93595570542873    5.20302622855168    2.15224140942492
C        -1.86047289013506    4.33995645112022    4.38405481036765
H        -2.61385033137910    5.12168166385030    4.56908326576616
H        -1.14071600992632    4.36872643720382    5.20457950885081
H        -2.39064531918159    3.36783821004996    4.40301360400154
N        -0.16373634870927    2.08483523720333    0.91083635354356
N         1.17780460300205    4.28667090938556    1.15226927247726
N         1.63085654502436    3.59320265437646    4.35419325045047
N        -1.17920806362355    4.57931216740892    3.12880845907192
S        -2.09666691059644   -0.79811264754845    2.85275463087672
Hf        0.36188293052854    3.30279434631004    2.79685562316902

