68
CSD_code = CIHGIL | q = 0 | S = 0 | Stoichiometry = C26H36N4SZr | MND = 5
C        -2.34957498705802    4.12497368983305   -6.07990265381860
C        -1.81641991555169    4.27802319523956   -7.35529194198442
H        -0.75802582045802    4.15695725696180   -7.52500237268204
C        -2.67898399363237    4.59800599523368   -8.39633125963279
H        -2.29182573551401    4.73903144836914   -9.39495427603569
C        -4.03380949711896    4.72895872468194   -8.15516551990599
H        -4.72743642791173    4.96316273457332   -8.94765272170209
C        -4.50420658426196    4.54410089526047   -6.85039326468829
C        -5.87097580927336    4.59281148342050   -6.42342009076556
C        -6.26666994968920    4.34954749348749   -5.12257327514812
C        -7.69081894992099    4.39301075561637   -5.07555599730200
H        -8.27167991825139    4.21772413220115   -4.18129492691257
C        -8.30221945377722    4.66880789925318   -6.26453303369292
H        -9.35461361324465    4.75365551996714   -6.46395843772014
C        -1.54517387632612    3.77162825063691   -4.85238969242972
H        -0.92373486949143    2.89006181324188   -5.11280689198719
H        -0.83129767158958    4.58923667370095   -4.64643902029688
C        -1.96477270656802    4.04681893075263   -2.49952497078075
C        -1.46194960757180    3.18717818999714   -1.49575449833443
C        -1.07461831186849    3.71312487675242   -0.27398386296121
H        -0.70394838374166    3.06206565604582    0.50281418541864
C        -1.13665738187891    5.07552610502101   -0.03734751972508
H        -0.81750262516641    5.47410711425078    0.91446012055129
C        -1.60511140691427    5.92531147357258   -1.02174391554328
H        -1.64695248432778    6.98650652650243   -0.82292322570362
C        -2.02895559584072    5.43753462594877   -2.25013719607554
C        -2.59512250232480    6.39479140261580   -3.28408410989107
H        -3.01230884665695    5.80456833014778   -4.12121840523515
C        -3.75923623181015    7.20356489059223   -2.69935565182394
H        -4.47179950934360    6.51482714988360   -2.24051320944233
H        -4.25698609373115    7.76902748477896   -3.48755940475325
H        -3.40961237480639    7.90726156982979   -1.94708512315035
C        -1.51429416267159    7.33897008655253   -3.82341937895636
H        -1.11759640214167    7.95666293702835   -3.02046485229240
H        -1.92947027752268    7.99379617848322   -4.58766701357689
H        -0.68558511335985    6.78497220521342   -4.26041617503611
C        -1.35887952890103    1.70963463959737   -1.80635148500113
H        -1.19090055620617    1.62444076900237   -2.88568920021256
C        -0.20086162366781    1.02430312577729   -1.08000464490867
H         0.72045913688827    1.59038163158486   -1.19883944611841
H        -0.04790553531652    0.02773197162350   -1.48932317607972
H        -0.41036398796249    0.91834457898733   -0.01820426737054
C        -2.68114450358029    0.99871687274907   -1.49514759067352
H        -2.93617844244588    1.11866736605331   -0.44309828251649
H        -2.58322015205589   -0.06575670499900   -1.70236530278832
H        -3.48560581712878    1.40818469311844   -2.12060570890069
C        -4.51752283466015    1.09834628801695   -4.99968680118972
H        -4.64553361010083    0.00208344303846   -4.95505102494267
H        -3.44872764439632    1.30958168705077   -5.12707002662294
H        -5.07026521411405    1.44865487007670   -5.90231002124916
C        -6.38563876488231    1.38607364276200   -3.56329854832919
H        -7.02914354532259    1.66704602996053   -4.42378387707611
H        -6.75030532099855    1.89489440174518   -2.66489664370564
H        -6.50746661444884    0.29866718369872   -3.41206619510124
C        -6.57843828547681    4.98951281423432   -1.87884805385786
H        -7.34920599557042    4.19569670453834   -1.79375222880062
H        -6.81344442135646    5.62068223867082   -2.74168347078249
H        -6.67355163262354    5.61328228932775   -0.97002048762237
C        -4.92108092055692    3.73442546737285   -0.76870351487716
H        -3.87179917012214    3.43421444960662   -0.76753749316007
H        -5.08646547887020    4.38047409677552    0.11355152524792
H        -5.55488462732941    2.83388109897425   -0.62947182747595
N        -3.64879733840697    4.26637354716598   -5.84560202873731
N        -2.38675755438003    3.47913054444817   -3.71051718718224
N        -4.99155785687897    1.71785463938542   -3.77733957568524
N        -5.23396034235107    4.45491358508254   -1.98750075052813
S        -7.19964026036489    4.89339771980802   -7.55542971849860
Zr       -4.49526446508524    3.70235061929596   -3.75566336120769

