33
CSD_code = CIHLUA | q = 0 | S = 0 | Stoichiometry = C13H14CrO5 | MND = 9
Cr        0.27307387142747    2.81556009293117    1.06033095167926
C         1.30680482261029    4.13049745546218    1.76839714594300
O         2.05665938315708    4.91532689461454    2.17514936178892
C         1.78156074479611    2.65894131499075    0.05705177422661
O         2.77905713782340    2.59979727919508   -0.52670655855582
C         1.27736325908131    1.85743053579130    2.24307920178468
O         1.98240728173371    1.29830855415960    2.96703639193425
C        -1.79183070429934    2.27787117951139    1.87405625764751
C        -1.45255668709058    1.31515729928999    0.90250711478434
C        -1.12944863938251    1.73000990863492   -0.38436193259767
C        -1.10048648718802    3.10289339528894   -0.69884228082230
C        -1.42955664388875    4.07493274990354    0.25810549603269
C        -1.79225705785696    3.63270812622205    1.55169583861564
C        -1.46569877041116    5.53964053028391   -0.14201479804113
C        -0.17078301104061    5.92565781030552   -0.87851238234117
C        -1.64282495909996    6.47152908026838    1.07853966401158
O        -0.72566987511988    6.23717346536940    2.11406223855977
C        -2.68971182233077    5.74685513432795   -1.07176178781723
O        -2.87860980932798    7.07703837031471   -1.46714823480681
H        -2.12353099001364    1.95758305219279    2.85431423620962
H        -1.52116223838090    0.26009921782386    1.13780206086490
H        -0.94235293091336    1.00121407545246   -1.16381049071372
H        -0.90297849988125    3.38843287984665   -1.72472699764194
H        -2.10695452030244    4.34302101169796    2.30125421472252
H        -0.10500921681876    7.00703925315562   -0.99056247360210
H         0.69756266514572    5.58165148542411   -0.31802875915368
H        -0.12597894034654    5.47991322102221   -1.86964229395719
H        -1.59457633490994    7.51151166140440    0.73179071081212
H        -2.63604419977144    6.32579618238606    1.51301857887773
H         0.15649455136267    6.51104077343510    1.84151914687078
H        -2.59552871871559    5.09194369439019   -1.95056398952694
H        -3.60309202928781    5.46889114014839   -0.53807348714556
H        -2.12694063076001    7.35373317475325   -2.00345391864274

