50
CSD_code = CIHNUD | q = 0 | S = 0 | Stoichiometry = C16H23MoN3O7 | MND = 6
Mo        3.03946812694783    2.67182736778315    0.43202425274936
O         3.99038109042574    3.12831527206167   -0.83538775000810
O         1.85169449070872    1.60820671415148    0.03882198826465
O         2.05456001205678    4.20778046185610    0.72345464921918
O         4.23528464770935    1.29496822558808    1.13963608439113
O         3.79990963312452    0.99728745200216    4.25357161881338
O         5.17589724138311    2.07927347570489    5.71241160858388
N         4.39885404974037    3.68068718579403    1.77718268402430
N         5.48202419310428    2.91565758703294    2.11062343267228
N         6.02135123264158    0.57099135322403    4.35296916877071
H         6.88840708620290    0.94586238696387    4.70724028232237
C         2.29085480413474    5.47344006978622    0.97159068023404
C         1.34826472246329    6.44782847740809    0.60435131064363
H         0.45158793361888    6.11311772297085    0.10191137069379
C         1.56981173281331    7.78080956002755    0.86859787039589
H         0.83345375528443    8.51423454632260    0.57574917129062
C         2.73711328931636    8.19085429340976    1.50974295900876
H         2.90238541125111    9.23765095512717    1.71210362923470
C         3.67835608881706    7.25743028445208    1.87454454386526
H         4.59021795544114    7.56830408945443    2.36391683044346
C         3.48619881050443    5.89086475258828    1.61778727924665
C         4.50148799335896    4.95027507118749    1.97474945179649
H         5.42904502695896    5.33214503277989    2.40474949644554
C         5.32113752411491    1.69641114439725    1.70088448282850
C         6.42491571239229    0.69424378484806    1.92233956374738
H         7.36200391297282    1.22132973116792    2.09991842531415
H         6.50534616540294    0.07097947214821    1.03089512308957
C         6.07033352058001   -0.19125810882581    3.12940114284545
H         5.08154749367391   -0.63086135716204    2.97609313009233
H         6.81074173203983   -0.98562788428380    3.24455771243472
C         4.89662010059726    1.22768665733324    4.72589017567384
C         4.15420172429649    2.89718605918730    6.34048658933733
C         3.01678252794482    2.03553178104555    6.88569800763129
H         3.41364094455983    1.27397795874175    7.55374834771978
H         2.48306922718513    1.54444772268297    6.07770455482855
H         2.32253875575311    2.66148012807459    7.43930031466912
C         3.64488527801983    3.94237672030387    5.34785061191573
H         4.48170205207296    4.51778475485391    4.95784763573156
H         2.95773668146451    4.61804216813257    5.84998595811485
H         3.12768305549026    3.47630417007600    4.51289628107366
C         4.89718376489797    3.57910992179749    7.49110655664130
H         5.28516413337289    2.83290839674971    8.17922796560476
H         4.22404521390989    4.24050317603513    8.02783694160964
H         5.73099648135774    4.15814339713312    7.10400298317079
O         2.10020472194808    2.38024706415545    2.72138463084752
H         2.59027028701592    1.67996724750588    3.20400220964568
C         0.72408011157290    2.02579929678466    2.71358206873957
H         0.36710508147010    1.89103522814408    3.73988024134697
H         0.55999639341586    1.11630034638657    2.13226887784081
H         0.18655807447847    2.84843868491427    2.24006685442485

