44
CSD_code = CIHNOW | q = 0 | S = 0 | Stoichiometry = C12H21CoN6O4 | MND = 6
Co        0.75295374103951    1.60641778928529    4.08164973979177
C         1.03958713963358    0.24516782822417    7.98558165929574
C         0.76939794147155    0.93822191612770    6.69071602354087
C        -0.07442900464580    2.09874332067493    6.60126169722599
C        -0.77281655693180    2.69150593932845    7.78425509645171
N         1.24724248423848    0.55275376751176    5.55381493203999
N        -0.19208347806725    2.56719316976721    5.39306013132892
O         2.03213684982295   -0.55135606232094    5.50657023709889
O        -0.97224873103922    3.56213359322185    5.12401471656070
C         2.24754452924131    0.48741459006000    0.37667727149401
C         1.60290134054280    1.12256095795810    1.56824955688926
C         0.81215424831018    2.31939331408085    1.48509493241822
C         0.58603449635002    3.03874256039370    0.19624718069546
N         1.69206278814193    0.63485877829892    2.77287622595960
N         0.31338519395408    2.69266803301966    2.61660448735779
O         2.31789005432059   -0.46782977433940    3.00905223592960
O        -0.48367725553708    3.79162510802846    2.66278725131316
N        -0.90911937686787    0.45469366118031    3.75748417918212
C        -2.14392043678591    0.89546662160654    3.71482044964200
N        -2.99978639343982   -0.11349281235503    3.47400931955372
C        -2.26315638039921   -1.25708693254072    3.35674688286614
C        -0.96434799468774   -0.88775393350710    3.53599642110298
C         2.31346919899818    2.78747742045675    4.38495876862720
H         1.72783158374523   -0.57927963337418    7.81966475561259
H         1.47540111006157    0.94197488022980    8.69926503188957
H         0.11330837912724   -0.13957951540098    8.40991235184436
H        -1.33479537742992    3.56166401621554    7.45190754146229
H        -0.05334434995093    2.99918285089311    8.54127901296150
H        -1.45773268459967    1.97296451342916    8.23338590246291
H         2.27308437184085   -0.64154535961248    4.49317157270209
H         2.92424076575757    1.18548275431511   -0.11356606270174
H         1.49897358732347    0.16815715466553   -0.34778388699139
H         2.81053795629979   -0.38088293724978    0.71215116529057
H         0.10299074117696    2.38152172361057   -0.52513282150176
H         1.53776583680678    3.36022235514817   -0.22308231682013
H        -0.04150589652984    3.90869434515799    0.36999343469613
H        -0.74809550305952    3.86146103756942    3.67033870642233
H        -2.44310596508855    1.91591035919235    3.85831416682138
H        -4.00097482570865   -0.04006577122681    3.39490929707944
H        -2.70699120045506   -2.21073775334021    3.16202082461000
H        -0.07811040602092   -1.49025269016543    3.51589369767000
H         3.03833947903109    2.70606715749125    3.57595849459121
H         1.99206533487967    3.82702294993763    4.43969275862118
H         2.82584266512997    2.54959870835583    5.31607697691391

