50
CSD_code = CIHRUG | q = 0 | S = 0 | Stoichiometry = C22H18N3O6V | MND = 6
V        -0.59851568049117    0.35046616534531    2.94165344745689
O        -0.34271965613720   -1.30762460345002    2.72156107950850
O         0.02415380218317    2.04239980806664    3.58033591257262
O        -0.91191697636649   -3.48266545832394    1.32390132531380
O         1.79559435215965    0.34979515487352    2.65047325258580
O        -0.37384669236838    0.97830143886023    1.34291870045877
O        -2.08005568427416    0.50704517154175    3.24994802207524
N        -0.20306161766519   -0.01235464647480    4.86362332012398
N         0.10161326258156    1.05371500932191    5.59603819672768
N         0.83615402066035    1.32308803593138    0.88565343981885
C        -0.68424425965765   -2.37574429003124    3.36946809614351
C        -0.98496831184335   -3.58070705946490    2.67991164028284
C        -1.32230743856270   -4.71141350897809    3.39755394515637
C        -1.35655902325127   -4.68021380175512    4.79328804093128
C        -1.06346280514167   -3.52892830559393    5.47880414133420
C        -0.73422474827401   -2.35349260046010    4.78205926245590
C        -0.40918828913260   -1.14000345751683    5.46099808014801
C        -1.27936464883834   -4.60291919500670    0.55753853309830
C         0.17040949682383    2.12733407392125    4.84249668292380
C         0.42461938984882    3.43064913266844    5.47659174890778
C         0.65300131479240    3.52752525039368    6.84801650275099
C         0.88653993505402    4.76291764286479    7.42100145627839
C         0.89194104001453    5.90685618230142    6.63690318696254
C         0.66318101739067    5.81508689084254    5.27319920881374
C         0.43078506738871    4.58282197640350    4.69246615102599
C         1.92120047538938    0.98693608282827    1.60632259576555
C         3.23940975063838    1.41562793450934    1.07712590068971
C         3.48912749529995    1.57443291325840   -0.28422040055228
C         4.74490813850231    1.96378778853607   -0.71421437848556
C         5.75571744757466    2.20146542580365    0.20349588797178
C         5.51485926489424    2.03577282588428    1.55765339963588
C         4.26467481773954    1.63850537300070    1.99347237182846
H        -1.56129202730844   -5.63281595678902    2.89063616444685
H        -1.61976466520026   -5.57949844522627    5.32837536841776
H        -1.09470091434141   -3.50721524167328    6.55733617841812
H        -0.33071493086464   -1.15643466741306    6.54904896915872
H        -2.31346888380019   -4.90217642514864    0.75618906542404
H        -1.18777938454561   -4.29208470602351   -0.48184682067563
H        -0.61249959650862   -5.45225767301966    0.74142522596044
H         0.64092270364482    2.62655720125934    7.43978695819822
H         1.06260598194781    4.83925027877686    8.48391154569227
H         1.07184574677387    6.87091718075022    7.08980883950075
H         0.66389305514845    6.70724421008695    4.66418537360965
H         0.24289025809639    4.49183229700574    3.63220599175052
H         2.71827334853642    1.36529243966441   -1.01146561685117
H         4.93733531902736    2.07907248458692   -1.77051773060078
H         6.73255784178631    2.50843975282370   -0.13903341259202
H         6.30326714046973    2.21300031368181    2.27349548121641
H         4.05859726519849    1.49838861263357    3.04402109665784
H         0.84217748500952    1.95872499392418    0.09269857155926

