79
CSD_code = CIHVOH | q = 0 | S = 0 | Stoichiometry = C40H32Cl2N3PRu | MND = 6
Ru        5.43899358627905    5.65298396137648    8.96391299130972
Cl        5.87278540557153    4.27438678805076   10.84293850001658
Cl        3.24650733706184    6.02353252934088    9.78459295957741
P         7.58381950690956    5.29967249984427    8.16371457093201
N         4.64416499837346    4.25043776477016    7.78282798373755
N         4.94727557665994    6.75235475318203    7.55097930866451
N         5.93001015351096    7.40486475241326    9.78924717942205
C         4.42902533436854    2.96694640166382    8.05194963242923
H         4.79666563963868    2.61672191334518    9.00922068883524
C         3.76725127739694    2.11947249254696    7.18463135921745
H         3.61502611771384    1.08668615003651    7.45270117764194
C         3.30090601655681    2.62546119243143    5.97728214617869
H         2.78408529303754    1.99040121923351    5.27421257556755
C         3.49309673063552    3.96543575598595    5.70280321967792
H         3.12008731042082    4.39784164795816    4.78810407679013
C         4.15638274977081    4.77072477386542    6.62665587383786
C         6.34698650344912    7.64777575550610   11.02749321393571
H         6.51234630747698    6.77619443854892   11.64972223642072
C         6.54961910381095    8.92487299550897   11.51352417918710
H         6.88507243727141    9.06779467161582   12.52778449788809
C         6.30569100389869   10.00773178400863   10.67720186049148
H         6.45714669928737   11.01871128214309   11.02317120855920
C         5.84518689831827    9.76543177317822    9.39782640135298
H         5.62216152515838   10.58230722415360    8.73018394475394
C         5.64884533959403    8.45307229476568    8.97207645092307
C         4.34664610845402    6.20805631897117    6.47784180026519
C         3.96193262625173    7.00875515877511    5.41346357663990
H         3.47880497550940    6.57872703353708    4.55124207525645
C         4.17852506273936    8.38794517496144    5.47240635509713
C         4.72716347495948    8.92657214356871    6.63852228534451
H         4.88125185225317    9.99035884503961    6.71768233898617
C         5.09970623973272    8.08271246219632    7.67404406732678
C         3.83773526516537    9.24708835836183    4.33502721294227
C         3.28465097812847   10.51096874256725    4.52324976297049
H         3.06874364113309   10.85648479187726    5.52354995061127
C         2.97512105362269   11.31379951082734    3.44181772465380
H         2.53749784398400   12.28742998950802    3.61074349940328
C         3.21453023203999   10.88676617281019    2.14249124233790
C         3.77009054003120    9.62504484097032    1.95485171129075
H         3.96656354255688    9.27753609770688    0.95026571330682
C         4.07343799702288    8.81565783189241    3.03001295810275
H         4.52104553503565    7.84666551306625    2.86348802625896
C         2.88189394538447   11.74822247681424    0.96376522289303
H         2.53188786551347   12.72695171816179    1.28143211121462
H         2.10246037684933   11.28025061654893    0.36288872971519
H         3.75648638787240   11.87855737343526    0.32781038829694
C         9.05123280828973    5.80258090525211    9.12110742696363
C         9.02542813344762    5.58432660876011   10.49527086598424
H         8.13924527538498    5.15205615811705   10.94328339308469
C        10.13376494475683    5.89416866764540   11.26313307392072
H        10.11068018863681    5.72734642195838   12.32975389358722
C        11.27179364286348    6.40976698184343   10.66516693017603
H        12.13632770547207    6.65495092857604   11.26465081520628
C        11.30853314237750    6.59837778205169    9.29262220185823
H        12.20278222963372    6.98259857050585    8.82313490096890
C        10.20629582802770    6.29018107865458    8.51673490197714
H        10.24469780043459    6.42878330457631    7.44521609633146
C         8.15277902624757    3.63360203694375    7.69312724975966
C         9.01096376682879    3.40699240272292    6.62122263769821
H         9.33591254342503    4.22893565150840    5.99864852021329
C         9.44918890185059    2.12306278073093    6.35356952292384
H        10.11040181008967    1.94692546692852    5.51720213922518
C         9.04952776418390    1.06646465020074    7.15641106546371
H         9.39431016141220    0.06609222964326    6.93902843259451
C         8.22223994384903    1.29655453359152    8.24333995334251
H         7.92703627569566    0.47765082183008    8.88228365581093
C         7.77729942840112    2.57730849646084    8.51786367442087
H         7.15564360378070    2.77987174187707    9.38120465770734
C         7.68458785139698    6.27171866796519    6.63061637301578
C         7.21959464683060    5.73347615121083    5.43235785065440
H         6.94026791211216    4.68799885301108    5.39059960682756
C         7.11635235766676    6.52733070488066    4.30509655320105
H         6.76842949167887    6.09675395900051    3.37712047546150
C         7.44826671968673    7.87098853889947    4.36562156787297
H         7.35931143965531    8.49197662662317    3.48679649193462
C         7.88063446653326    8.42062223824895    5.56154504425978
H         8.12510728755236    9.47145151107639    5.61542674447165
C         7.98950196093064    7.63034257388791    6.69066308556370
H         8.31294654448173    8.06217396772589    7.62972520722396

