76
CSD_code = CIHWAU | q = 0 | S = 0 | Stoichiometry = C39H29Cl2FN3PRu | MND = 6
Ru      -12.68107839373325    1.54263267077417   14.98512708993584
Cl      -14.88533336912397    1.03930106925853   14.28464002076669
Cl      -12.16784028891671   -0.77007480144976   14.93179263719321
P       -13.18595681563705    3.80307978012242   15.06981620804968
F        -3.00570676044643    2.90768982910339   17.86433692458115
N       -11.86239779587299    1.64694098752434   13.16557217871095
N       -10.91874034993780    1.78183342128213   15.51029330778420
N       -12.94767215962413    1.34473258924094   16.95498368426843
C       -10.51368697964240    1.79856253546988   13.21958296789573
C        -8.28995114989632    2.06334859874637   16.28555251285768
C        -6.89957934434569    2.27158176951738   16.70182873646484
C       -11.74835825757112    1.27917675674850   19.02611507547559
H       -10.81377602197765    1.37917397320282   19.55444527870163
C       -10.60184089890265    4.85580279989120   15.03112961004496
H       -10.65724347519253    4.72502496705847   13.95745513909866
C       -11.78246457923611    1.45648877125538   17.64417640048936
C       -13.49255492934301    4.70378089732576   13.51674107579128
C       -10.61182664814344    1.72448048821436   16.81916866378465
C       -14.05453773969560    1.01044603555972   17.61018985660114
H       -14.94502979710255    0.89421896579282   17.00362419937142
C        -9.29866401846095    1.87920583854362   17.23508937920245
H        -9.04763451512651    1.82878536899865   18.28189402822190
C        -9.96534919870142    1.89011674962556   14.56706689686252
C       -12.44131874666201    1.45273066758033   11.98535884389832
H       -13.51180193438403    1.28602818602724   12.00549393554651
C       -11.72363545085693    4.58736133800892   15.81362265398009
C       -14.08428464249016    0.80811997783423   18.97634628650408
H       -15.00745887409632    0.53339894929462   19.46000213933021
C       -14.57552398346850    4.48508847047819   16.03270570499470
C        -6.61095920913781    3.04681428223950   17.82504862008245
H        -7.41850777945594    3.49950937946282   18.38015627857676
C       -14.36366547737195    4.08520179603244   12.62284313245488
H       -14.78463630789009    3.12153563528992   12.88401912880092
C        -9.74781689962903    1.81475551700601   12.05532007204526
H        -8.67941356764402    1.94577582834105   12.11981311174525
C       -11.73695366477908    1.44407530347024   10.79693204715577
H       -12.25418054741304    1.27772185482127    9.86615409373174
C       -14.52240980037887    5.77805323958769   16.54814357447233
H       -13.63006409286376    6.37602486523950   16.42388676609362
C        -4.28221212814795    2.69609187871796   17.48472648625056
C        -9.42730166697937    5.28510531086383   15.62026680939917
H        -8.56464634300123    5.50094252050725   15.00697513093183
C        -8.63596205722729    2.03939886264406   14.93200892659477
H        -7.87357107416857    2.15903840857532   14.17970723481951
C       -11.62725162645942    4.69909476331906   17.19895270797457
H       -12.48357184803337    4.45310434672234   17.81414478757754
C       -15.73937012914247    3.73476330611950   16.15810372679243
H       -15.78760933666138    2.75396171232755   15.70271429469598
C       -12.99138437714429    5.96985665222550   13.23480058986632
H       -12.34551415394361    6.47385936870133   13.93997106696344
C        -5.84403403410217    1.70979757668585   15.98402058111259
H        -6.05151326999278    1.08297663056148   15.13024424835268
C       -12.90858028905729    0.95748011463515   19.70266043149337
H       -12.89700235515749    0.81067347182444   20.77172410379071
C       -14.69505921167960    4.71225872688899   11.43614608152086
H       -15.36836769665694    4.23039333517784   10.74304047517078
C       -16.76432841184024    5.53577026980714   17.36962712715420
H       -17.61350332674038    5.94566037027986   17.89661048910180
C       -14.16836129920545    5.95946788048853   11.14051497979985
H       -14.42224672772858    6.44894919961370   10.21172771088379
C       -10.45032106783501    5.12920713395727   17.78389788379533
H       -10.39007249854017    5.22525958518294   18.85840615778635
C       -15.61371052483369    6.29473859922026   17.22024423022022
H       -15.56934481008340    7.29583351766840   17.62443275643306
C       -16.82811055618095    4.26166409404264   16.83135925633699
H       -17.73048906730629    3.67686518755712   16.92953012101778
C       -10.36231928186309    1.64397026889808   10.83017114145119
H        -9.78189568542347    1.64911689475608    9.92043033048428
C        -9.35152210861400    5.43071387316184   16.99600761737590
H        -8.43370066159108    5.77309555355632   17.45025917642472
C        -4.53398872674777    1.91511338130321   16.37107144630711
H        -3.71228747570598    1.47754132416556   15.82653813425477
C        -5.30594796643673    3.26657447556428   18.22002018684586
H        -5.07322085353465    3.87092871155151   19.08263699543021
C       -13.32622030375738    6.58820891967303   12.04315665513312
H       -12.93130258351570    7.56919842031016   11.82108165888940

