123
CSD_code = CIHXEX | q = 0 | S = 0 | Stoichiometry = C53H57CoN6O6 | MND = 6
Co        0.67988007075355    3.96611477394683    3.61138862564261
O         3.08863707909518    3.04762735622955    4.92891035680384
H         2.42196776012437    2.24724989484393    4.85982460488708
O         0.17582610498393    6.50438682927984    2.57857650851756
O        -1.77247002890912    4.91104134558361    2.42243959028575
H        -1.10699580285956    5.70610602717717    2.47247953654516
O         1.24927109952194    1.37566779344990    4.51111238672298
O         0.03693576953548    4.59327905376349    5.24786946607874
O        -0.82301667166609    3.72711261989154    5.95319138753780
N         2.41691769342384    4.07959409603842    4.35389245641929
N         1.01255483480588    5.78263845367169    3.23072328256493
N        -1.09925096092671    3.87924996268180    2.98436217722191
N         0.34499311708775    2.14274549502600    3.99719649132097
N         1.40146347900489    3.46302159693917    1.83561823750084
N         1.29497441741257    7.56189285430139   12.10839114441677
C         2.94496644130683    5.25900518021788    4.35945323452643
C         4.23529158934397    5.56366266069731    5.01233101863630
C         4.33364192306302    5.46621472187877    6.40551956164179
C         5.52773087606766    5.80820444799343    7.02099680628881
H         5.59607292040014    5.74437058936027    8.09788462961317
C         6.63175953846246    6.22380087867044    6.29177773574003
C         6.53008187589210    6.26050292400663    4.91019539241527
H         7.38950353833867    6.54624686302282    4.32019164380557
C         5.35201553500343    5.92809708976490    4.25835159123654
C         3.19198584749855    4.98135642316648    7.24344291768653
H         3.29174332843294    3.90515604499065    7.38953096149350
H         2.23310229611695    5.16565030923199    6.76769953553740
H         3.19894414214767    5.45724773852934    8.22187628971315
C         7.89860112187334    6.61821557943641    6.98694047579082
H         7.80724196378522    7.63218528606095    7.37727599410140
H         8.74332329546316    6.59215735892381    6.30308939511692
H         8.10088080675372    5.95528321671132    7.82549193853169
C         5.32581222183377    5.92658309386496    2.75948085180140
H         5.07202405605584    6.91760530565966    2.38534758385287
H         4.59392443104751    5.21513788370608    2.38224026275456
H         6.30485759305913    5.65814306938384    2.36783842057687
C         2.14350431947695    6.25036674015058    3.67508826843319
C         2.57437117060647    7.65034597254172    3.47003764531863
C         2.70494672785578    8.51664162525733    4.55862191244260
C         3.15645771583742    9.80863814102987    4.34051431019388
H         3.26253828941459   10.47549979528710    5.18462780354855
C         3.45728439116719   10.27113159102699    3.06784133349563
C         3.26242225849649    9.41713989701521    1.99432030185384
H         3.45632441201281    9.77119654095184    0.99119099283140
C         2.81659247309840    8.11563751821363    2.17287606884078
C         2.31805637252407    8.09925517468027    5.94466650814216
H         3.19301375912017    7.76626422643638    6.50133353078651
H         1.59367787967973    7.28916381613146    5.91907363406850
H         1.88259880081738    8.94191499359804    6.47789192920783
C         3.94154304798465   11.67508264875318    2.86735454252328
H         4.26662835861334   11.83362341800431    1.84216087067915
H         4.77170345933825   11.89187535603496    3.53750638299826
H         3.14228164795512   12.38222736895814    3.08823028767374
C         2.56979577739748    7.25242224369407    0.97166502330465
H         1.49877432488898    7.23793130165173    0.76550188677174
H         2.88839083910312    6.22456756955760    1.13741425793431
H         3.08601901311604    7.64577417249724    0.09899480649687
C        -1.69888630328767    2.74545012670448    3.13838466618513
C        -3.11651223057190    2.53545887333619    2.78061911760744
C        -4.11353226622839    3.24162532085492    3.46450971542327
C        -5.44330432061388    2.98818385463833    3.15539750972253
H        -6.21182058117395    3.52502920130964    3.69370598314165
C        -5.80739739213905    2.07698971201858    2.17847956442729
C        -4.80117209156329    1.43442158597764    1.47124409938520
H        -5.06456799098560    0.75049050168302    0.67666990174609
C        -3.46288937492526    1.65768731456683    1.74961121006946
C        -3.79810975109329    4.27587041429248    4.49879843238596
H        -3.70882498420099    5.24630193701930    4.00899921935775
H        -2.86018562755950    4.08157133879127    5.01006049870287
H        -4.59708369006093    4.33804582612385    5.23442940377597
C        -7.24661669285851    1.79625000812808    1.87063593179792
H        -7.49580783751302    0.77087077803574    2.14340822342829
H        -7.43895182580317    1.91233105108987    0.80526850808850
H        -7.90114144634852    2.46836751816773    2.41950096811907
C        -2.42453043551166    0.98933123477243    0.89830606927715
H        -2.19602408055066   -0.00306114758730    1.28491314235600
H        -1.50551386122218    1.57147494565681    0.87196293665255
H        -2.79261484988315    0.87768850879272   -0.11967113509253
C        -0.84617635756155    1.71134121219390    3.69344631308756
C        -1.27330034672277    0.30665513445572    3.86807869247976
C        -2.32393715728309   -0.02530848661013    4.72784300471136
C        -2.72341561500583   -1.34939640289418    4.82891424905427
H        -3.53987300733354   -1.59770245080896    5.49264542947760
C        -2.09710964626821   -2.35886240549822    4.11478851571989
C        -1.02994261453568   -2.01873333345469    3.29895110391094
H        -0.51299993185784   -2.79388656731459    2.75027100596735
C        -0.60486357323118   -0.70542967180820    3.16572290239206
C        -3.01047855025518    0.99555522071015    5.58315610112651
H        -3.99360029314996    1.22924655467899    5.17626916549780
H        -2.43520734051020    1.91343145578927    5.64427107200462
H        -3.15176236538497    0.59971475150579    6.58798998599958
C        -2.54521350682900   -3.78193016359743    4.25452643343357
H        -2.13732168010065   -4.39934875425205    3.45801107918218
H        -3.63132663323767   -3.84651934786429    4.23096322425010
H        -2.20732318295402   -4.18751724471943    5.20834140333159
C         0.56950260367765   -0.40818865595887    2.28296184373512
H         1.44974167267852   -0.24979567342936    2.90732507199394
H         0.41341435621167    0.49392705424380    1.69311901636626
H         0.76651099386303   -1.23901947135246    1.60955605557495
C         0.92155840389160    4.01281479619843    0.71791574368451
H         0.12695000154726    4.73769937506507    0.82245840803786
C         1.40593834809366    3.70462131115141   -0.54068852431388
H         0.97824377034783    4.18305366639115   -1.40699263921859
C         2.43536720400616    2.78517940080591   -0.66155980577371
H         2.83587163326280    2.52282565515272   -1.62865859249979
C         2.93545204422253    2.21320010812097    0.49701864541638
H         3.73552147744677    1.49124004016223    0.46494447644240
C         2.39347451172157    2.57822487767202    1.71631354314561
H         2.77093509184965    2.13013824023791    2.62413830643304
C        -0.18261933113007    3.16949767305471    7.07369828974088
H         0.75221070165112    2.67240784447904    6.77691372810364
H        -0.88045149106892    2.39981774104830    7.42331804307354
C         0.10366888865830    4.14782769688995    8.18344856373051
C        -0.22638578163040    5.49148081138134    8.06226934641137
H        -0.70538752722087    5.83848768363625    7.16003157111191
C         0.07600601121307    6.38093723642794    9.07413623458483
H        -0.17051602246822    7.42778136483904    8.97627869659657
C         0.70676815227921    5.92496959260676   10.23113360722957
C         1.02857566152396    4.57206964678855   10.36349084570334
H         1.51433904414568    4.22468867653911   11.26365290188284
C         0.72972021430819    3.69619766218083    9.34193066407877
H         0.98518073244756    2.65068695941208    9.43587088246722
C         1.02782972895095    6.82888535178783   11.26740663718707

