98
CSD_code = CIHYAU | q = 1 | S = 0 | Stoichiometry = C50H43N2OsP2(1+) | MND = 7
Os        8.41145691795086   11.40935888340883    3.29128778471097
P         8.42333259175752   13.07742930976602    4.97704302483597
P         8.09376292050635    9.48581315928517    1.84535011755296
N         7.47400226520349   10.25547507547576    4.71496179660733
N         6.71330056069715   12.42575276727814    2.17810706390399
C         6.17791989198243   10.31876208556868    5.01215139031217
H         5.57224473309608   10.96665596877751    4.39088223496600
C         5.60449522672186    9.60488004911757    6.04233460036410
H         4.55160835010297    9.70304793076651    6.25003217872003
C         6.41003912369325    8.75361935776707    6.79441896352802
H         5.98878705505619    8.17359650252312    7.60020025071064
C         7.75010097596656    8.67304186616972    6.49302413118117
H         8.41285243942085    8.03381273490050    7.05352723611508
C         8.27575984318575    9.45044167182881    5.45662564276150
C         9.66904276653846    9.55437409024748    5.13162992015571
H        10.38005765979807    8.95101074680340    5.67951655745431
C         9.99089527303245   10.48381162498039    4.20723814735710
H        11.05563738226220   10.64573560042986    4.03042270767943
C         5.41475041652064   12.43718108205472    1.91140299629011
H         4.84235918362577   11.57660427734085    2.23477362372679
C         4.80231501516081   13.48457235571700    1.24705822765797
H         3.74443287292889   13.45205124061235    1.04349692142203
C         5.57295234407166   14.57235872491920    0.85936468321437
H         5.12061289200657   15.41174465896289    0.35448307414112
C         6.93245897906478   14.56076791288437    1.12053009934512
H         7.56951665869265   15.38073366764139    0.82903889292126
C         7.47149430890091   13.45386377445901    1.76208473785751
C         8.88488921739734   13.24415172300029    2.11560354318420
H         9.41682325040515   14.10539840157340    2.51877046399312
C         9.60897429693330   12.17171152054128    1.58308238579106
H        10.69052408137567   12.20580586960253    1.66830946193844
H         9.27706440806078   11.69177588710259    0.66601386841048
C         9.97146557388690   13.94674878207615    5.39730215539121
C        11.14974358826234   13.71634602199870    4.69999206808711
H        11.15247917511568   13.00924784157552    3.88409820057803
C        12.31122739248457   14.37929029208479    5.05954806008100
H        13.22531613022829   14.19596891772621    4.51503074142403
C        12.30128017134324   15.27338799327937    6.11627974471806
H        13.20643976296244   15.79013323207116    6.39593590132535
C        11.12812763834469   15.50228539167851    6.81999424177341
H        11.11994804774375   16.19611906883119    7.64685804200510
C         9.96778415904069   14.84109808030667    6.46713925296425
H         9.05246980397957   15.01535203808286    7.01698187785082
C         7.27783563176679   14.46305835139842    4.64424917804268
C         7.73365605788557   15.74781827437043    4.36415383579056
H         8.79000550965927   15.97096530752980    4.41273644354733
C         6.83833090284237   16.74885970531190    4.03098103674254
H         7.20332184046302   17.74348568606394    3.82377888714355
C         5.48181433822909   16.48024827995088    3.96226792509668
H         4.78605527743092   17.26413074738040    3.70578836802032
C         5.02061865925487   15.19943355528395    4.21843024426898
H         3.96452622128458   14.98117126250456    4.15779887829358
C         5.91306148747406   14.19657753276737    4.54654223538660
H         5.55052417430223   13.19271784885805    4.72066397267388
C         7.99079002798501   12.52948692250528    6.67137906046710
C         6.78709944061129   12.78303205628130    7.31686216423373
H         6.02480518101496   13.38616074004459    6.84764888565142
C         6.56532461681063   12.28846354311361    8.59142877286408
H         5.62888303205585   12.49741035773962    9.08669553604258
C         7.53625035229452   11.53922070133611    9.23169944434708
H         7.35646501751939   11.15577622499107   10.22424417159262
C         8.74654177923316   11.29882319349508    8.60070360152984
H         9.51606464559821   10.73199885891788    9.10229308498923
C         8.97333721014989   11.79047795099005    7.33061794898264
H         9.92014582130738   11.61469552203404    6.83896832027012
C         9.46453913417272    8.87071468741745    0.79753768174143
C         9.22266509616624    8.14818840003139   -0.36699812461668
H         8.21144162793635    7.96897331962819   -0.70117652815120
C        10.28185365329961    7.65353874614609   -1.10740245646229
H        10.08507416452868    7.09571945195039   -2.01044309481376
C        11.58642810377934    7.86800850696874   -0.69493322916057
H        12.40805317685715    7.47934327663596   -1.27665615227991
C        11.83252996508496    8.58155757621264    0.46660961725052
H        12.84737127347481    8.74778225066461    0.79558587033577
C        10.77741520897619    9.08174185260214    1.20725793356292
H        10.95697733887790    9.63536377095653    2.11632263327750
C         7.70703753964106    7.98350429998989    2.81163926859260
C         6.42574844398279    7.79324669206019    3.32792987006609
H         5.64021214734648    8.49907362753194    3.09233130437983
C         6.15222321208270    6.70812124510864    4.13812727150682
H         5.15400116963185    6.56516713891162    4.52455579804679
C         7.15680675421547    5.80839571693318    4.45651028368842
H         6.94162098568389    4.96164925395868    5.08993094730385
C         8.43492285038153    5.99924247679135    3.96018971000781
H         9.22056527319784    5.30161273482825    4.20762245532273
C         8.71266436896633    7.08257380290575    3.14537812730200
H         9.71251847049098    7.22757394931106    2.76362999184873
C         6.75611368330230    9.53315597463091    0.58727590654862
C         6.67411735997759   10.64268217296151   -0.25158823280772
H         7.37309293687381   11.45911211961467   -0.14439294474280
C         5.71227440855402   10.71541545583233   -1.24221610844826
H         5.66483501978332   11.58669565825351   -1.87854738279503
C         4.81991426445914    9.67212063847160   -1.42096288035526
H         4.06599264377637    9.72765623669535   -2.19091485529424
C         4.91557134129653    8.54783818966359   -0.61841409009128
H         4.24316511730684    7.71667539918669   -0.76928209296347
C         5.87729328034857    8.47323294115087    0.37410662163595
H         5.95055741479156    7.57479163221399    0.96842786966484

