39
CSD_code = CIHYUP | q = 1 | S = 0 | Stoichiometry = C8H22N3O4PtS(1+) | MND = 4
Pt        2.77125771335504    2.52207695405305    2.95778458848066
S         1.65261383883169    4.16301252064964    4.09245508739839
O         1.35086660637271    1.31341136955677    3.87129399342401
O         0.41603394040586    1.88878244703649    2.03952601598012
O        -0.64078409093643    0.66975168335914    3.45076966209272
O         2.28369182843312    5.46830249638832    3.96290411086888
N         3.85564238110762    0.90284067506371    2.17213846502811
N         4.11921017798541    3.70178968486082    1.96399534441539
N         0.31960437840579    1.27323981600018    3.09174052544783
C         3.09364393549104    0.26544175681871    1.08961208028982
H         2.77863960118833    0.99978253872486    0.34880461765065
H         2.20087750083359   -0.20917955347604    1.49335327283483
H         3.69453565555113   -0.50522434579683    0.59865824691428
C         4.12027654160547   -0.08669911292017    3.22504662688907
H         4.67460582720818    0.37276561698590    4.04344005919878
H         4.69937701329809   -0.92530094440256    2.82881358339044
H         3.17875316474396   -0.46669697519779    3.62102217150390
C         5.12472725717140    1.46634889342479    1.66380161392675
H         5.58564734032009    0.78681119472448    0.93801684445202
H         5.81463220391146    1.58119855700683    2.50324465290341
C         4.85533754075376    2.82377667772846    1.02145111245579
H         5.79567084648192    3.29658098094763    0.71871050777538
H         4.24238899132179    2.69027796535374    0.12686588679412
C         3.40156030420337    4.73168989563210    1.20024104936499
H         2.62303605742959    4.27052829081209    0.58987504063683
H         4.08917432393099    5.27553466224657    0.54796358135295
H         2.94513437838677    5.44420289482270    1.88675244144558
C         5.04108409359939    4.35388692483401    2.90159882871866
H         5.57682017131511    3.61442616038612    3.49460824129165
H         4.47482163617826    5.00522512674538    3.56729854447691
H         5.76827726357706    4.96609606332163    2.36172217742561
C         1.61751071500640    3.74219472796187    5.85288377637502
H         2.63223469702385    3.79676198581990    6.23424106024359
H         1.22874672597993    2.73484641674761    5.96142633762967
H         0.99324304950087    4.46263183063910    6.37004723303101
C        -0.11654138114959    4.37883855455824    3.76543222445921
H        -0.28952237464977    4.33713840180730    2.69404489698707
H        -0.39116940574416    5.35527783642279    4.14951560826574
H        -0.67746044842991    3.59652933035039    4.26419988817192

