56
CSD_code = CIHYOH | q = 0 | S = 0 | Stoichiometry = C27H23ClN3ORh | MND = 6
Rh        5.13209186908495   10.51072918709267    3.29939835238149
Cl        6.84938336762801    9.39780680857500    1.85532834174805
O         3.86937765032509   12.09983415307793    5.31944058217508
N         3.85183614970929   10.61079280567372    1.76980912610256
N         6.39622869448337   10.44890351424159    4.88278360953488
N         6.08522492991601   12.47739012673183    2.69365428741379
C         4.00681042039575   10.12730890724503    0.55587310263975
C         2.99374025470267   10.17193864368434   -0.41180222459331
C         1.77461146473447   10.71398070259827   -0.10196880200795
C         1.57631587457968   11.24292067071449    1.18954455461785
C         0.36786913329062   11.81071819784724    1.64578092556454
C         0.25947058357160   12.29404303333028    2.92334295173629
C         1.34485081574020   12.24375914679241    3.80789140906636
C         2.53663145461691   11.69034579883169    3.39973514003883
C         2.66179083743464   11.17919044703025    2.09062175505408
C         3.74903529158270   11.53543864499049    4.24992021890432
C         4.32306371530043    8.65529577723395    3.87659790002700
C         2.94066057180327    8.44460544135736    3.40878069371078
C         2.67920111639832    7.84391267854517    2.17427462509117
C         1.38769157162270    7.71313835905319    1.70342377294553
C         0.31900508342712    8.16472200591277    2.46041969035001
C         0.55563574349172    8.72875044980720    3.70317879527748
C         1.84748934983039    8.86298232160698    4.17222942272869
C         7.70572097618515   10.57274059216358    4.64638665964564
C         8.65755641632855   10.57635254583703    5.65010244468558
C         8.25225875655791   10.44623046913441    6.96791399330447
C         6.89556864548430   10.32162131516920    7.21676818050928
C         6.00853878273903   10.32911042026320    6.15506710085536
C         6.32818413883542   13.42747389449718    3.59349244004150
C         7.15075822161752   14.51067710825695    3.33543838995792
C         7.74567097237180   14.61686937050200    2.08800742886410
C         7.48221431151060   13.63447880562838    1.14830241919712
C         6.64788506574019   12.58340807867649    1.49350029177640
H         4.96300617686407    9.66671261716174    0.33541557969704
H         3.18707884950527    9.75694319920526   -1.38864490738378
H         0.96818625349946   10.73775169557966   -0.82006298738184
H        -0.47245082778705   11.85153278272113    0.96829304017734
H        -0.67401002798417   12.72148017077152    3.25891734909886
H         1.25250447739191   12.62547228119761    4.81369074650637
H         4.36922256458414    8.55876521754825    4.96665572496177
H         4.99628460012388    7.91963408566762    3.42451964749314
H         3.50873029407468    7.48648487409913    1.58017971334220
H         1.21070644595630    7.25417324535059    0.74046558270949
H        -0.69120307731951    8.06724030735775    2.08997787470455
H        -0.27408851330634    9.06710155279342    4.30800357320836
H         2.02172943400697    9.30665691135857    5.14311612137550
H         8.01290946214045   10.63795776747977    3.61003366655416
H         9.70058039353668   10.67510884137914    5.39355829655418
H         8.96990270671868   10.44137153487232    7.77435565419503
H         6.52132437852436   10.21933889741907    8.22318585918693
H         4.94762724293430   10.26075765551673    6.34487180803591
H         5.84111705692989   13.32333169567867    4.55506749731453
H         7.32154324065405   15.25235253484332    4.09989120154149
H         8.39759561961246   15.44598204831666    1.85536275847330
H         7.91964652369904   13.67284359752836    0.16321597446789
H         6.44868449463841   11.78193606402892    0.79519264575873

