72
CSD_code = CIJCOP | q = 1 | S = 0 | Stoichiometry = C19H41B9IrN2(1+) | MND = 10
Ir        9.08761661153647   12.92635426823028    0.58163002961631
N         7.92709247120546   12.08265225678732    3.74296055011464
H         8.19450766377168   13.05389711870705    3.67069224075875
N         8.43383117429778    9.92710917787040    3.17394871032820
H         7.62383843127540    9.68686672463189    3.73080825226320
B        12.48230789000814   12.70808544227871    2.39142803827519
H        13.43787345543348   12.66156669400157    3.06950635191093
B        11.75778304687097   14.26396476606836    2.11451296376762
H        12.16099301770673   15.22227759210162    2.65393619091612
B        10.67820143256135   13.06113438054253    3.00456069534248
H        10.45954945625036   13.25225242381847    4.14780639127562
B        11.36075325473591   11.39304152876744    2.54706452777559
H        11.53614841120295   10.57043753469700    3.36589290246380
B        12.21341847605047   11.62689146979208    0.99954378773210
H        12.98644896414681   10.82674170993397    0.62624798154999
B        12.47039784851938   13.35052332929367    0.74132601544651
H        13.42354520192679   13.76020679407411    0.19499486724742
B        10.46404456068914   11.23534470294470    0.90969088110899
H        10.05557442950843   10.23691981746825    0.44433424529394
B        11.15702467986067   12.52552486573503   -0.11875126478552
H        11.19207407483513   12.34160557265617   -1.27697774913929
B        10.89670207063706   14.19496642394038    0.47678113653096
H        10.78110657995445   15.12144190249040   -0.23354397132701
C         7.01244585121751   11.78184000236334    4.83852487594249
H         6.30638623323379   11.00465699445534    4.51691583975599
C         6.22378466337564   13.04439088449487    5.16259589324773
H         5.52016857740534   12.84514521383961    5.96532348252356
H         5.66227522232734   13.39018756124678    4.29918824901747
H         6.89280345066045   13.83765549047441    5.48813007716644
C         7.78597997254357   11.30340332787294    6.06978791393278
H         8.38234168859369   10.42056082181344    5.85466141830078
H         7.09319317720866   11.06218068006640    6.87049103179195
H         8.45287565555175   12.08801585090743    6.41829920092549
C         9.19119646839502    8.74954926327246    2.77487365098539
H        10.10914089657914    9.07133869950315    2.28655694088304
C         9.53925663497591    7.95233022612689    4.03028953272733
H        10.12677920296159    8.55553547610850    4.71850915860113
H        10.12591569027415    7.07991832814446    3.76040637960078
H         8.63892573141871    7.61204224422808    4.53844270230016
C         8.35950775074330    7.91530737804406    1.80511478231596
H         7.41314138480528    7.62311786302437    2.25565595568536
H         8.90207039029486    7.01399482760320    1.53812907348885
H         8.16005246093101    8.47155292294643    0.89302813300519
C        10.15114810189764   14.20983254556187    1.90406873016888
H         9.53030686879423   15.02742314780323    2.25786963830375
C         9.79351629260183   11.78275105624395    2.29317724955082
C         8.71457002645726   11.22397777163010    3.07614496992214
C         7.65206422934380   11.98615183411872   -0.89308270001530
C         6.86661624252006   12.28291213603048    0.27439236637720
C         6.87545490601407   13.68459516980744    0.47290400207215
C         7.70576567562372   14.26110430130775   -0.53853905964332
C         8.13952616577831   13.21126164716445   -1.41782512290283
C         7.72722276532397   10.66452441606008   -1.58404591031177
H         7.00233028569057   10.63548936329136   -2.39851703099928
H         7.49868081579257    9.84591546285194   -0.90700699598474
H         8.71450271717226   10.49866423545574   -2.00853744654931
C         6.02806195745552   11.28765431197115    1.00794828128518
H         5.10850997390939   11.10785326300071    0.44915677473227
H         5.75417727765270   11.64766838125900    1.99661417313861
H         6.54177795764378   10.33437594193943    1.11241980676498
C         6.06373263609601   14.47419887376713    1.44802532454560
H         6.68143940592406   15.15071099751305    2.03811287144265
H         5.51418085252073   13.82252075759184    2.12117888192054
H         5.33851736014983   15.08450766409427    0.90934820395251
C         7.82434018467644   15.72443599844020   -0.80387752231974
H         6.95312117713572   16.06077840391940   -1.36801159827986
H         8.70950292993668   15.95005883155425   -1.39123173071716
H         7.86231622783070   16.29559812251811    0.12079523169010
C         8.80489976846247   13.40445099425428   -2.73671694557834
H         9.31054354467651   12.49877126712296   -3.05802114383680
H         9.53081246514744   14.21221638779793   -2.69931845764385
H         8.05528688129215   13.65856616254955   -3.48744290774770

