89
CSD_code = CIJCOO | q = 1 | S = 0 | Stoichiometry = C24H48CuN12P4(1+) | MND = 4
C         9.22393721594994   13.57607427543453   18.46032735727648
H        10.14803513646202   13.15707032902194   18.87713336729304
H         9.06554793184876   13.14354529410215   17.46265133920749
C         6.54029311091244   14.20448371166996   18.73564149338247
H         6.28818424638121   13.79000365106215   17.74982236620927
H         5.63244699783331   14.21994255921972   19.35057672722942
C         8.20181019879252   14.22460071917698   20.95902207374722
H         7.35846163124368   14.23808849123766   21.66004488097625
H         9.08135260801835   13.83468302406867   21.48565241843198
C         8.19838641711741   15.61831947625561   17.73022864940522
H         8.42575547912373   16.67024045217573   17.53877960828364
H         7.98317780650650   15.11957478443964   16.78096776088034
C         7.32499311663723   16.17263828861702   19.86083701872455
H         6.45207555098673   16.09525114545992   20.51406464219665
H         7.54777705525047   17.22826147087671   19.68534351871494
C         9.61820551508979   15.63478506122751   19.62701310617592
H         9.85465181207098   16.68721066350176   19.45041798058581
H        10.47510796473362   15.15109906989803   20.10304218052379
C         6.21527302758006    9.60935647478491   16.39182630474552
H         6.39160269761984    8.84434580896072   17.16159707213838
H         5.16469552032721    9.92016874927655   16.44966041455567
C         6.97988230591215   11.96434864435320   15.15410550541063
H         5.95940895375070   12.36710837492999   15.16172069641673
H         7.68232805037014   12.80275984793228   15.06711530636524
C         8.88841614626910   10.28802283931131   16.25194055771667
H         9.67415210646445   11.05293282478391   16.21203007543600
H         9.16493460603344    9.54729123118788   17.01549219616499
C         6.19552239452754    9.99533259539309   14.02553462715040
H         5.18122108214797   10.38633402097817   14.14000287619187
H         6.27104188813469    9.47027832419935   13.06969799087158
C         7.82901107024182    8.56099896404158   14.96365755717739
H         7.91704790487699    8.02454179331879   14.01518859230686
H         8.04385332641691    7.87211652387674   15.78592878468914
C         8.48730508956303   10.57467583911363   13.90569016034467
H         8.57629383250938   10.05111175601916   12.95023867121909
H         9.20181538997019   11.40165190704835   13.92832309712731
C         4.07942786322131   11.77749744545957   20.57658756302452
H         4.73881142372447   12.25529280503060   21.31259719695288
H         3.84286221515139   12.50801276813226   19.79327734162829
C         3.51882955264024    9.63026246070983   18.90793772352345
H         3.26017340579547   10.28814150775025   18.06964359683088
H         3.78790494008693    8.64474579034317   18.50980848624259
C         4.90106964643275    9.22668028725709   21.28778792900949
H         5.23233458175012    8.22327411156393   20.99233391106345
H         5.58580911651128    9.60881186198486   22.05520711648520
C         2.62049644805419    8.59906751032849   20.88431214632667
H         2.99466793066473    7.64532267126280   20.50350180015904
H         1.67380194765921    8.42982534771672   21.40363566075943
C         1.91814127759807   10.77945632057463   20.28281079282868
H         0.96872330524944   10.62248775821634   20.80100948746102
H         1.76019612730260   11.46804434301448   19.44878452930187
C         3.09572969850115   10.43289500656937   22.30789046237346
H         3.82823955674151   10.85883623866009   22.99853801748758
H         2.15280037742371   10.27729072692251   22.83820435598846
C         9.22043195838242    7.57921445262040   19.30113495875130
H         8.32110954688061    6.97024123423271   19.45579274205263
H         9.48119826364835    7.54776503739450   18.23629722317559
C         8.79331909187172    9.01672190145151   21.63493481554380
H         8.75450513304284    9.98154186520406   22.15616730026781
H         7.87916519480125    8.45898732901827   21.87087522215920
C        10.60052579010102    9.96210186584521   19.76312224003318
H        10.92937558178451   10.06568527917975   18.72232770371118
H        10.62098167491399   10.95347940832892   20.23389875214812
C        11.54706012081949    7.75840543139936   19.87143721574698
H        11.75546011802960    7.84365060242375   18.80175286127576
H        12.35399909946894    7.19682302436543   20.34894063479607
C        10.00821343212682    6.95449281051705   21.48397479115123
H         9.05949573624970    6.43136709764324   21.62903889254903
H        10.80568815110112    6.39044785104204   21.97424587579408
C        11.18193446045459    8.97327439179647   21.87258601220680
H        11.98431347483566    8.41838977682445   22.36537735409464
H        11.11764859952521    9.97289729966288   22.31042896837807
Cu        7.18053652391686   10.84593121473627   19.24421154675052
N         9.36579192093770   15.00327817780632   18.34014542158699
N         7.02184717074832   15.55245596194478   18.57986941707593
N         8.47185125882701   15.56764454168570   20.51712377669217
N         6.46420206907509    9.04235125729172   15.09153735404199
N         7.13788128550572   11.10130195296706   14.01446754365804
N         8.80766682483652    9.63592551191897   14.97081255089966
N         2.85807371617784   11.37025862616045   21.22222344486458
N         2.37464585844520    9.49849363327179   19.76933512702008
N         3.57344106843521    9.14193050452682   21.83934617386300
N        10.30666104387449    7.02395257552511   20.06293851832838
N         9.93186459862467    8.26826568798610   22.10187543403743
N        11.50730055084132    9.08770030285925   20.46028829991619
P         7.78430912499692   13.05976842930872   19.54243153134328
P         7.28534270530257   11.09669628496455   16.80214339521715
P         5.01257096363930   10.35255573208588   19.79361296758733
P         8.82686328571645    9.35250899749841   19.78991884055281

