58
CSD_code = CIJCAA | q = 1 | S = 0 | Stoichiometry = C26H26ClN4Ru(1+) | MND = 9
Ru       11.23100846791952    8.96314705095014    0.78001809066183
Cl       12.99761406242631    9.12058845585114    2.30131006821801
C         9.17060172173776    8.41455928311295   -0.00700890043099
C         9.23609285826098    9.82985069608662    0.13677759232676
C         9.51026821433794   10.40132563054238    1.42438947103560
C         9.80494450171146    9.55778837558484    2.51809345973902
C         9.74933932061911    8.12729408098759    2.36052617516590
C         9.29910186346853    7.57339098184608    1.14509750909998
C         8.79721717350535    7.78954985087696   -1.32653923048360
H         7.71749719808263    7.83755665981962   -1.47694954681154
H         9.09957730435063    6.74713045338839   -1.36643199535550
H         9.28292546603491    8.29912392468299   -2.15604577646101
C         8.83040573367601   10.73678592382689   -0.99471296142711
H         7.93858999722010   11.29303095394503   -0.70429826624689
H         8.59154981546314   10.18340534394385   -1.89571066341188
H         9.61455787802423   11.45257510836860   -1.24124502770446
C         9.39170926876560   11.88789164797930    1.64619010587963
H         8.50242121605624   12.09175035005302    2.24462960510884
H         9.29507173897626   12.43822243058575    0.71684369059522
H        10.25490112662079   12.27454669146855    2.18499826830083
C        10.08253486755373   10.11312244269826    3.88306682401427
H         9.54636006020875    9.54462781642224    4.63946027502005
H         9.79054931417595   11.15341490144600    3.96957275161178
H        11.15055604542363   10.03923081977286    4.09914017739289
C        10.05018583829488    7.26173708468144    3.55305056640933
H         9.20066643256853    7.23713477237594    4.23681688582568
H        10.91087833946134    7.65770666333642    4.08816343762781
H        10.28790656244846    6.24261426793128    3.26248974548547
C         8.85324390734555    6.13974008753776    1.05407837323148
H         8.70611241689178    5.71115317638250    2.04023198762537
H         9.55372667780633    5.50940516099867    0.50683772606980
H         7.89866422304368    6.10185592363418    0.53108284531433
N        12.38419166766896    7.57749882075827   -0.07688619643767
N        12.34932191350225   10.12333893031383   -0.39865498075648
N        16.14189356666479    7.14180475739232   -3.05654593478337
N        16.08923838790706    9.89430474167701   -3.42528327156431
C        12.43141466098885    6.28541382782242    0.22264287907172
H        11.73270149259650    5.93236678863817    0.96972162664868
C        13.34837013136999    5.41347515114283   -0.35466005246513
H        13.33330596600147    4.37264604157687   -0.07395620143083
C        14.27755012136224    5.88495819311686   -1.26376499874931
H        15.00785893976128    5.24207753677695   -1.72729543996206
C        14.27801601628020    7.25047137437611   -1.55778964159610
C        13.31228791818137    8.05519649987333   -0.93562148857153
C        13.29208700681426    9.47001325336868   -1.11566669341744
C        14.23222289459085   10.11655025854325   -1.93112344254362
C        14.18769864826166   11.51091946339755   -2.00143399777012
H        14.89861649905637   12.03442563400061   -2.61936564678024
C        13.23831342171683   12.17108901162863   -1.24337097781304
H        13.18451707602063   13.24788411459463   -1.24610747400774
C        12.34966108938736   11.45056633084878   -0.45247130100497
H        11.63343254630924   11.96499157824066    0.17350760656794
C        15.22997002783705    7.89586711847867   -2.43431372174686
C        15.20533676671601    9.29734343892643   -2.61926933330015
C        17.00581105244274    7.74741120883316   -3.83847984066714
H        17.73547436402607    7.11911936515808   -4.32855409633648
C        16.97731175393481    9.13687041109543   -4.02707036150407
H        17.68101645811115    9.64033913827447   -4.67411028247843

