31
CSD_code = CIJDII | q = 0 | S = 0 | Stoichiometry = C12H10Cl2N2O4Pd | MND = 4
Pd        0.00106844394284   -0.00011628979590    0.00031595230817
Cl        1.23737781109170   -1.92153951248081    0.05769987691745
N         0.86925694908927    0.50796861706161   -1.64217400374852
C         0.42664737993674    0.05740262494938   -2.81033509271823
H        -0.44079197051931   -0.60332422674043   -2.80502587196137
C         1.03548442195012    0.40088967896921   -4.01367261687398
C         0.47195995971649   -0.14680527505394   -5.27749291067939
C         2.14571227623058    1.24217411582832   -3.99171405328885
H         2.63402322004077    1.51994297001256   -4.91223311258228
C         2.59486258269617    1.70449810745017   -2.76485866381564
H         3.44971523959120    2.35852981011116   -2.70013252791456
C         1.93063175815651    1.31714037869388   -1.61396341046492
H         2.24762619270826    1.66112348974556   -0.62920074878135
O        -0.50187864420244   -0.84902066719588   -5.33353828147296
O         1.16546581285247    0.22540030677365   -6.35777013254907
H         0.76610734941599   -0.15291788117316   -7.15720406229283
Cl       -1.23522548611690    1.92142620873909   -0.05709354773961
N        -0.86751102820660   -0.50848217386166    1.64252072602423
C        -0.42613561756755   -0.05743657037797    2.81095619630749
H         0.44097575785831    0.60370598819068    2.80624902498768
C        -1.03596777707864   -0.40080732142203    4.01382567121297
C        -0.47420635494997    0.14794390812009    5.27796609104488
O         0.49914959242307    0.85073877031354    5.33474129510260
O        -1.16857444764896   -0.22425092056153    6.35768030057607
H        -0.77046928909839    0.15486962071781    7.15736625013112
C        -2.14571419987106   -1.24271108749731    3.99110512648563
H        -2.63464086928205   -1.52058451941094    4.91126313147261
C        -2.59357957932334   -1.70553051888819    2.76396291042628
H        -3.44807487012337   -2.35997354575600    2.69863182240124
C        -1.92858485635371   -1.31804401756804    1.61355866608559
H        -2.24470975735076   -1.66221006789510    0.62856599540587

