63
CSD_code = CIJFAC | q = 0 | S = 0 | Stoichiometry = C32H22Cl2N2O4Pd | MND = 4
Pd       10.05660834315229   10.74873977342481   10.16970960632317
Cl       11.92322322705356   11.78702894944349    9.29821480465819
Cl        8.18913463285065    9.71332621418328   11.04174989477597
O        10.53803185548389   11.18767614931844   16.92319628736537
H        10.38292886236017   11.34627851941122   17.86779115151916
O         9.24826378959695   12.98680196413299   16.72684695385418
O        10.88554844423619    8.50461076066826    3.61908403871989
O         9.60169208965884   10.30714312722745    3.41525267632727
H         9.76185803843133   10.14812072859800    2.47157485743461
N        10.38389124232409   11.36998386476092   12.01053154392620
N         9.73140338787012   10.12570401363505    8.32899255369194
C         9.96418246182903   12.59793097427430   12.40705865431996
C         9.71751675723710   13.57787666136412   11.42313704369481
H         9.91363999472573   13.33097553207925   10.38092914353662
C         9.29105929950738   14.82728159717515   11.78201098177090
H         9.11813733871238   15.57445586225080   11.02285339735466
C         9.08687993415029   15.14512053590755   13.13110449118644
H         8.74426799673862   16.13293829498672   13.39964831610641
C         9.33068120270721   14.21960009495394   14.10985004377918
H         9.17985752074065   14.46771536083828   15.14723750815877
C         9.77985399460837   12.92551239996660   13.78245196070229
C        10.07743971332244   11.91489164848977   14.74019958788540
C         9.89384813735563   12.11638647423733   16.19942363348419
C        10.55211056047136   10.70291430642962   14.29048009508797
H        10.80892197499923    9.92385376095545   14.98997219208128
C        10.69664153616873   10.45725905974914   12.91612767760949
C        11.22139108079399    9.15600009010729   12.45855833096602
C        12.26314940744078    9.11348721714878   11.52328205998061
H        12.69375134913493   10.03457035279020   11.14353377969943
C        12.80442635731557    7.89394714352763   11.15095045823669
H        13.61994716201985    7.86717227678362   10.44399974642119
C        12.30791382479294    6.71585577379339   11.68702687924827
H        12.73927817487016    5.76822791557196   11.39947040987724
C        11.26524234553935    6.75420891635296   12.59839010644904
H        10.87175407758858    5.83703790303477   13.01073574370132
C        10.72866407390065    7.96688407616786   12.99290470327153
H         9.90831143569127    7.99652373961790   13.69405461519545
C        10.14891218439995    8.89619034046622    7.93476662039598
C        10.38786285413595    7.91561095828826    8.91999569099958
H        10.18879984754690    8.16351113751588    9.96135517379507
C        10.80969852598638    6.66405465257562    8.56311027284629
H        10.97593462285456    5.91626507080067    9.32315125870722
C        11.01752004782846    6.34474293920674    7.21494672628265
H        11.35616609257398    5.35511902716912    6.94803862324030
C        10.78211626989491    7.27115975717884    6.23498870123279
H        10.93592197127652    7.02202177265239    5.19827943831855
C        10.33744100050454    8.56732705476738    6.56023220542157
C        10.04805253427867    9.57882965450242    5.60088457879387
C        10.23942871578207    9.37689845463717    4.14274189435382
C         9.57440837052250   10.79214695169781    6.04801658416822
H         9.32300018287789   11.57168431937817    5.34709577413241
C         9.42405643826514   11.03852517063911    7.42161419257938
C         8.89858430834198   12.34036977807018    7.87645513140703
C         7.85375443656032   12.38363435182092    8.80825086403634
H         7.42218889414546   11.46282250214146    9.18762121585380
C         7.31114000503073   13.60346672052428    9.17767462181488
H         6.49321194568703   13.63080309455911    9.88181577775104
C         7.80964252026629   14.78113687716489    8.64249170284750
H         7.37739658391496   15.72904756142183    8.92781686863488
C         8.85557027023639   14.74205693431057    7.73488966337918
H         9.25061764213371   15.65891227444004    7.32335077821164
C         9.39330018307064   13.52905998735109    7.34299656757413
H        10.21612192649725   13.49886062336617    6.64478314482005

