97
CSD_code = CIJGEI | q = 0 | S = 0 | Stoichiometry = C51H33LaN6O6 | MND = 9
La        9.02595456632822   19.64606971557923   -4.35680578333226
N         9.23740068660558   20.08503506676464   -1.63305751753892
C         8.13779358993772   20.44082941837517   -0.98210056895428
H         7.51295116896119   21.18174614481778   -1.46534912088976
C         7.77159499887970   19.92162984326260    0.25025265541484
H         6.85821611328453   20.23931141545846    0.72764110870462
C         8.59528510892583   18.97326629869392    0.83407237992354
H         8.33719570801843   18.52377372662657    1.78152390182506
C         9.75226550007114   18.60257135617664    0.17350608107158
H        10.39700083683216   17.84744877300133    0.59283504479166
C        10.04592524090322   19.17987836112045   -1.06154024683157
C        11.22908598595231   18.77148240263849   -1.84468912207277
N        11.14211113066110   19.00103022715483   -3.15782838577349
C        12.10384420713287   18.55618125922632   -3.95767130688496
C        13.23002419674799   17.89918088705232   -3.48240175668084
H        13.96089036654277   17.54558194222088   -4.19305437393117
C        13.37042853789623   17.70085944442436   -2.11171189301340
C        12.33990441489212   18.15032380380314   -1.28441782460149
H        12.42562671652682   18.03165369591234   -0.21533007004194
C        14.55353273115644   17.03103837376660   -1.55646408083681
C        15.81841139688952   17.28731443856655   -2.08165742908103
H        15.92531742374566   17.99671324736166   -2.88882095804116
C        16.93291576534424   16.65571185099029   -1.56250626191685
H        17.90918893061420   16.86603486281032   -1.97369025798197
C        16.79981263687605   15.75266897800712   -0.52053715559341
H        17.67065577094478   15.25572451338451   -0.11981303203126
C        15.54548718552974   15.48533819279018    0.00233263941092
H        15.43626130086565   14.77440408564376    0.80805291304677
C        14.42960422400179   16.12270344901803   -0.50738393648540
H        13.45084076116655   15.89168566372082   -0.11360915992263
C        11.90632121345473   18.80890612451775   -5.47240255431891
O        12.88327446249077   18.66491758580345   -6.19320552897190
O        10.74086442348006   19.16616976735056   -5.80239987105069
N        10.98099102734678   21.90999255313311   -4.07116697201632
C        12.28431142584574   21.67977332934613   -4.08574705828154
H        12.64330882644157   21.02602806904728   -4.86864254148965
C        13.16778147122102   22.24742332456292   -3.17723748281392
H        14.22087266916065   22.02130536247089   -3.22742803997899
C        12.66248914398547   23.10197322300372   -2.21084672111933
H        13.31215859256130   23.54544884234875   -1.47027714373166
C        11.30998126874414   23.39686862241955   -2.22479874921706
H        10.88659598937636   24.07080238970968   -1.49645296762377
C        10.50167817382355   22.78897644390752   -3.18333910742736
C         9.06443788859307   23.08815402485986   -3.32056673273098
N         8.32803068160401   22.09739580579145   -3.83292620393776
C         7.03256705613937   22.30817020487400   -4.04839616040967
C         6.41250496004334   23.51840057700039   -3.77062729695531
H         5.35740101572627   23.61884838079976   -3.97135974137688
C         7.16054484545390   24.55667613823309   -3.21971735284023
C         8.51892969152097   24.32384371834174   -2.99488622094808
H         9.14574215580842   25.11577502905574   -2.61440249054801
C         6.54965098984169   25.85120965626655   -2.89219401390037
C         5.59486029146822   26.41361975545980   -3.73687563988414
H         5.31885390015981   25.89932421797836   -4.64521474051153
C         5.02252264144163   27.63401383535718   -3.43073187295705
H         4.28877390356481   28.06400462825228   -4.09604515185100
C         5.38580437173322   28.30408175488398   -2.27402139421408
H         4.93429886463042   29.25495820610845   -2.03394459583009
C         6.32865876113010   27.74929584083201   -1.42465509245470
H         6.61008302407819   28.26528477462586   -0.51846163477589
C         6.91122102102623   26.53413590710315   -1.73274924827475
H         7.63225389793474   26.09712958952681   -1.05701561453338
C         6.24861336927028   21.08276773413657   -4.57635222618208
O         5.27597546839610   21.29014301571657   -5.28563985024860
O         6.71871864751091   19.98655397229199   -4.16578272176410
N         8.30160970017477   20.52454875824063   -6.73092412709356
C         8.68752560700924   21.69526945839834   -7.21740032443516
H         9.20405609381455   22.35133840928570   -6.52556184579371
C         8.46510328888903   22.08947685670197   -8.52760901883285
H         8.79454156676296   23.05653125557749   -8.87356596643244
C         7.82057437261229   21.20519495306957   -9.37732778019202
H         7.63811629374536   21.46383887498827  -10.41009143464247
C         7.41956026791460   19.97878342757409   -8.88109505142414
H         6.93793856264167   19.26609332549784   -9.53098572880430
C         7.66585901931129   19.66871666497486   -7.54255593988321
C         7.25219158040698   18.37909905799533   -6.94799144474191
N         7.86005073489953   18.04520864637507   -5.80507248625020
C         7.52964908473775   16.91146943788997   -5.19706909686987
C         6.59979215306072   16.02480015836173   -5.72344199018985
H         6.38157898839893   15.11997349387038   -5.17732646566227
C         5.95049977455339   16.35117756069235   -6.91027814830047
C         6.28155975616898   17.56231724009826   -7.51915897233201
H         5.77510684951251   17.85445599978329   -8.42545528326359
C         4.94708926634742   15.45590883360926   -7.50194059868272
C         3.77876426058015   15.96600060718241   -8.06331968430346
H         3.59390481589007   17.02982264333820   -8.03720063798480
C         2.84019986166298   15.11513222718110   -8.61731188710815
H         1.93295660117577   15.51990544524443   -9.04151690893883
C         3.05965321500078   13.74761359026521   -8.62799630004053
H         2.32750582093602   13.08501318913138   -9.06540873070421
C         4.21948177253067   13.23217542615557   -8.07295814475423
H         4.39433435136732   12.16637743846479   -8.07952271181645
C         5.15528971475430   14.07832655021413   -7.50809184425343
H         6.06402019091862   13.67636733710590   -7.08559424167835
C         8.18977301097227   16.63744700878772   -3.82606402097936
O         8.11140965446833   15.50837890455688   -3.36803802220454
O         8.74020043161833   17.64487337591748   -3.28979090797626

