54
CSD_code = CIJJOV | q = 0 | S = 0 | Stoichiometry = C18H29Cl2F3PRh | MND = 8
Rh        4.51668209354580    5.50048172128363    4.35335688801904
Cl        4.46138896246929    5.98900743819165    6.63272442935638
Cl        2.28940952907718    4.85745058307671    4.33463142267347
P         4.74712696394330    3.27652558976630    4.83623487995774
C         4.89707185129028    7.60625081339113    3.85053064517155
C         6.16131493193045    6.89971348634761    3.91197582406525
C         6.17724779916929    5.92998429160385    2.86994249193314
C         4.89481314231485    5.96087976317529    2.22588907395048
C         4.13889442523222    7.05095754313926    2.79008117466174
C         4.58616108591261    8.82857998545047    4.65251679637634
H         5.19064635226282    9.66310229378219    4.29212076989798
H         4.81862835301824    8.66718180089499    5.70413572500881
H         3.53520315891316    9.09491185175358    4.57385214284341
C         7.30624410143392    7.32462253682569    4.77363081533728
H         8.11554930754449    6.59958865810330    4.74688953284842
H         6.98246922458076    7.44933746889057    5.80597051682962
H         7.68733375021167    8.28448918729241    4.42099300512896
C         7.37364846001358    5.17661498652946    2.38623012531550
H         7.09850514134465    4.22104962774846    1.94758612848211
H         8.09160288572644    5.00948590821203    3.18561944069813
H         7.86410159750845    5.77021131149229    1.61178349303706
C         4.50582592578474    5.23967303837466    0.97564115263443
H         3.45090756616750    4.97245888217430    0.99783963868302
H         5.09328679935393    4.33667902797207    0.83422512873492
H         4.67063576052949    5.89180208853912    0.11546882466436
C         2.83336040549880    7.53060066952903    2.24791826638602
H         2.96332563208633    7.82490965950858    1.20570716707996
H         2.46223185240148    8.38195002321241    2.81192169503472
H         2.08230182861533    6.74155245720643    2.28708896972926
C         4.39983854345711    2.40796475390949    3.25869781570393
C         3.23991300827542    2.00213937290600    2.74769679841549
C         3.64404129974060    2.36623446755646    6.03676429715981
H         2.65251865351438    2.76564457796125    5.79168174825692
C         3.96825490926152    2.74611370256601    7.47958255141928
H         3.16994723702003    2.39665611386749    8.13090213768593
H         4.05337100712621    3.82414358419202    7.58937445173754
H         4.89668324777071    2.28397998673435    7.80795407805267
C         3.61084033279914    0.84335799270534    5.89256127492257
H         4.42513886224968    0.37710442745256    6.43954869353302
H         3.65661473853334    0.51029007754492    4.86016029530566
H         2.67734416992126    0.47956427248793    6.31675042931594
C         6.53253762199228    2.78102926262271    5.06116316584057
H         6.99203105254560    3.10375039082410    4.11878888029550
C         6.79472232627236    1.28975088522782    5.22921372700128
H         7.86237918590840    1.10156248391036    5.12346808237350
H         6.27332112392223    0.70386289631071    4.47559976025075
H         6.49453885390920    0.94779687763474    6.21516158755959
C         7.15471787669008    3.59657120991024    6.19105482001570
H         6.84850721360937    3.21904150879617    7.16241962133574
H         6.84348795756536    4.63907115444706    6.12825465320828
H         8.24101173018072    3.54804945770026    6.13514778480431
F         5.45901849128808    2.39855529901573    2.40918662469696
F         3.08625627192353    1.55493766308095    1.50489343640470
F         2.11164539668040    1.89267488718324    3.41586712017070

