71
CSD_code = CIJKIR | q = 0 | S = 0 | Stoichiometry = C32H32N2O4Zn | MND = 4
Zn       10.67880876438144    2.96987383604677    1.21971892050636
O         9.56295109361202    2.00074252791412    0.13305028334287
O        12.41310510256001    3.12324278446643    0.65387919945909
O         7.89031639553137    0.83262914710980   -1.82427958103162
O        14.93242466875255    2.80998821799970    0.15261274006554
N        10.48416425132259    1.84214616253138    2.81650855926480
N        10.26259782942861    4.89946676234295    1.25505950446865
C         9.62382775443846    0.88034660256799    2.82430901814742
H         9.53673777877455    0.28846865126707    3.74319581108516
C         8.76010788796411    0.46195778435283    1.77824060758832
C         7.83347962306940   -0.55907242413491    2.08665052617430
H         7.81284740812962   -0.94577118262323    3.09567469017424
C         6.96781111610703   -1.03943850095251    1.14615096659781
H         6.24921330942698   -1.80472045730784    1.39453394609916
C         7.03422073303245   -0.55109851091105   -0.15999661861569
H         6.37332990522106   -0.93268445982295   -0.92308293404669
C         7.93722116563521    0.42474022430723   -0.51800464061962
C         8.80660217422182    1.00805132480677    0.46176310517926
C         9.08154439013369    1.25248191549188   -2.46089178667591
H         9.35901742620869    2.27286038645088   -2.18938693678009
H         8.86809470231185    1.20254174212016   -3.52937040854272
H         9.91489326297263    0.58657569673730   -2.22395593954248
C        11.89602282848882    3.39065007378408    4.09040383520186
H        12.53154926212033    3.58654242201397    3.23168902453880
H        12.49580139081639    3.48452433902438    4.99328402750055
H        11.10014171928592    4.13192743712496    4.11900989717307
C        11.31408394158381    1.98309654663149    4.00552323855028
H        10.69018957621685    1.80311816221900    4.89568786521460
C        12.42628690777772    0.95254754458123    3.98973610985044
C        12.61072110910312    0.11139239031854    5.07888586296682
H        11.95704414747308    0.19106163635565    5.93725118354318
C        13.62840714258807   -0.82689525071845    5.07952657442400
H        13.76163694512845   -1.47387851276949    5.93450052439143
C        14.46911836549274   -0.93640413207608    3.98592762299669
H        15.26191333566510   -1.67026578016902    3.98433702336889
C        14.28638992034860   -0.10311715549238    2.89505314162253
H        14.93650741492027   -0.18314023730971    2.03669728218579
C        13.27268146090040    0.83805106837242    2.89354605027142
H        13.14074475232297    1.47734603899089    2.03396973926484
C        11.18377496470248    5.76036693747067    0.97568313874787
H        10.91030256411899    6.82158498387372    1.00416000666056
C        12.54089277981610    5.51396384574526    0.64731474361772
C        13.37693015960362    6.63925171995870    0.44760186151643
H        12.94252948931255    7.62436272810263    0.54033755187413
C        14.69870298505603    6.49650074053616    0.14968860751686
H        15.32662898044790    7.36109384225933   -0.00036978096129
C        15.26316345836657    5.21643395901867    0.04054935027003
H        16.31509776925727    5.13298426325687   -0.18422801126183
C        14.48954400803006    4.09869735794493    0.21837337487198
C        13.08480543403597    4.20830520113124    0.51444195852430
C        16.28658490496339    2.58693224794593   -0.13861146668662
H        16.56285109341415    2.99527087747941   -1.11688214040968
H        16.41213964921582    1.50535345476711   -0.15411073560408
H        16.94052451681937    3.01548408647303    0.62931253928015
C         8.10302488350765    4.43289310435257    2.32104178446623
H         7.11705472906702    4.84882173751061    2.51717656313240
H         8.58325622705602    4.20552190158376    3.27035472913610
H         7.98284280659240    3.51178386927340    1.75772551352510
C         8.93487707849255    5.43709763210733    1.52974208952180
H         9.04289426954602    6.35523035553492    2.12887813445519
C         8.24437985533676    5.79896553903933    0.22997850681394
C         7.79868030798576    7.09459509060114    0.00775678484949
H         7.94003217720196    7.85085723086126    0.76824990925491
C         7.16714471523761    7.42670709546380   -1.17870590962399
H         6.82294666500542    8.43832660551567   -1.33806616469913
C         6.97970963456820    6.46630295821542   -2.15700966662291
H         6.48836048428274    6.72589022813392   -3.08318028567824
C         7.42638687935494    5.17275947429179   -1.94357607977910
H         7.28267641762816    4.41708268226682   -2.70154617329536
C         8.05429119477809    4.84056842963715   -0.75723975563876
H         8.40521195372483    3.83382499800788   -0.59664901313660

