59
CSD_code = CIJKAI | q = 1 | S = 0 | Stoichiometry = C25H27ClF3PRhS(1+) | MND = 8
Rh        5.56722729230593    3.67747076160788    9.11264151719497
Cl        4.10914051092001    4.94896457578828    7.78206158269421
C         5.88025586851016    1.54895422452779    9.61729046325652
C         6.30667704752934    2.38294236828137   10.70944514411942
C         5.15487098571172    3.09257769634907   11.19776707876044
C         4.03579891817567    2.72676599770846   10.37581551086006
C         4.48858130362779    1.78273859203610    9.38782212029394
C         6.74031624921193    0.52709650692892    8.95655561161645
H         6.86542853335559   -0.31422006316245    9.64009117573195
H         7.73008857209711    0.92082063866048    8.73184603037996
H         6.29408083951581    0.15329348045734    8.03899623975655
C         7.64199926422496    2.30561094238234   11.37146009310117
H         7.65354211837978    1.45192676832980   12.05093347779193
H         7.85182114400467    3.19863347077377   11.95420351640957
H         8.43808552652176    2.16350289661234   10.64365661768705
C         5.08764710231925    3.90362276870867   12.44727141750838
H         4.79466681409415    3.25004168500253   13.27068087937080
H         4.35199596212094    4.70110939268567   12.37021265310166
H         6.04946307786909    4.34514087132176   12.69282446397643
C         2.61074484082905    3.10382330778734   10.58817552911510
H         2.07270787170846    2.23736866498891   10.97581891525462
H         2.13682209731916    3.39403434206232    9.65155802208414
H         2.51312985916269    3.91631438283770   11.30280713671394
C         3.57821149607438    1.03791987463850    8.46665887517835
H         2.95118609362642    0.36371416099996    9.05147508263665
H         4.13270004115315    0.44519844301382    7.74428615653912
H         2.92188693817033    1.72121001181371    7.93020879389127
P         6.37960121682347    5.78180610604044    9.31973440570201
C         6.89695381730747    6.33574820094915    7.66696517701657
C         7.17159245758311    5.34943152734752    6.71978464348985
C         7.59010349845714    5.69403279258401    5.44758614851241
H         7.83720676835532    4.93144899169977    4.72615707473216
C         7.69295441410851    7.03229254387029    5.10234134674534
H         8.01009460513166    7.30052747796931    4.10704213567488
C         7.38757546627135    8.01801294297726    6.02526573324257
H         7.45481274798954    9.05823627405132    5.74809250285331
C         6.99479845187307    7.67335442453191    7.30805183592917
H         6.74476391180499    8.44132294647610    8.02448450935669
C         5.49903054523819    7.12600514019284   10.14565889367177
C         6.18456726192333    8.27385381209027   10.54499321549471
H         7.24753268319502    8.36731872626212   10.36654761834589
C         5.50012826274573    9.28888678531807   11.18663167738155
H         6.02879388955480   10.17829012965994   11.49343343324479
C         4.14285879347080    9.16356251782032   11.44137975290589
H         3.61566736698829    9.95931875909660   11.94421085594354
C         3.46555175541572    8.01664555264139   11.06004655637909
H         2.41070917269870    7.91773657033815   11.26579579951079
C         4.14049249720748    6.99573509260649   10.41546063257753
H         3.61868078146992    6.10013084884585   10.10896067760386
C         7.95854478092289    5.84815257541717   10.25982313429565
C         9.20477712899106    5.69807191566196    9.81788655416768
F         7.75451648979122    5.86897471663141   11.59363498742873
F        10.28910851548752    5.62196904195573   10.56096073613035
F         9.50430277384792    5.62610835369367    8.52970894970540
S         7.03037091543950    3.62796596583541    7.18445956011216
C         5.97595567178045    3.00161879866016    5.84382662976164
H         6.53582403842662    3.01931372296295    4.91419852137273
H         5.08093705130176    3.61419191443892    5.77610075250819
H         5.71921589985201    1.97745806821940    6.09701144314459

