83
CSD_code = CIJKOX | q = 0 | S = 0 | Stoichiometry = C40H36N2O4Zn | MND = 4
Zn        5.98324887573129    4.93709562951174    5.95201029498753
O         7.51956688855104    5.91617011987916    5.68918370815385
O         9.41556919418509    7.71367453339686    5.74737924640679
N         5.96181065355675    4.09467594937196    4.15228529033206
C         8.11894323280211    6.13578443979373    4.57518348361682
C         9.18410007712047    7.10444334439487    4.54733393380357
C         9.87529313220841    7.36018840630937    3.39077822473736
H        10.67525218465138    8.08397472885816    3.37202230598960
C         9.55688175954601    6.68564582444012    2.20285267836914
H        10.11658144042067    6.90673748933272    1.30711533227960
C         8.54924522736132    5.76906726237534    2.18836383393526
H         8.29365526876408    5.25265704000764    1.27395380789250
C         7.81028775766473    5.47078750244693    3.35817527498629
C         6.77099722507152    4.51458854333576    3.23705004458986
H         6.65661888259223    4.09848333628555    2.23121598461046
C         5.69847698828558    1.69950182011201    3.91091460400995
H         6.55348262829324    1.62454836950295    3.24251129131686
H         5.00436321770222    0.88717944978217    3.71127270481032
H         6.06656990280527    1.60127068925075    4.92948931782597
C         5.00360654331169    3.05493552568660    3.75716821922681
H         4.18575889164853    3.09647561255141    4.48650270624454
C         4.41178519118470    3.28651903952102    2.37660653387365
C         4.63954080200446    2.42153287926717    1.33558261735294
H         5.25698266889658    1.54744677409073    1.46853001613000
C         4.08138931389172    2.63308703480311    0.06600977540109
H         4.28817743236610    1.92391496826300   -0.72230652138786
C         3.29123424341755    3.71972183729006   -0.16558394017841
H         2.85684185791632    3.89190884565478   -1.14000601131570
C         3.02924689544044    4.64160158772367    0.86862460906776
C         2.21688535887076    5.77167191481347    0.63991571070143
H         1.79723450673939    5.91081963190169   -0.34679947061632
C         1.96734016934288    6.67085471787845    1.63752119399097
H         1.34543432605958    7.53506075958089    1.45233107859427
C         2.52320441667656    6.47014119331216    2.90808455212886
H         2.33696039864213    7.17537126681483    3.70186418641960
C         3.31106655216252    5.38204501542266    3.16261320875192
H         3.72440531766286    5.27414506721816    4.15120465772530
C         3.59325574434059    4.43260610679630    2.15783668041684
C        10.37778325319089    8.73485886315005    5.79432411597161
H        11.38352799435109    8.35289182543136    5.58431472440655
H        10.34948880382478    9.12837980237740    6.80987961144749
H        10.14444556937502    9.54243727245060    5.09212515107525
O         4.44693200647081    5.91617364384453    6.21483776457407
O         2.55091464094372    7.71366298674702    6.15663816922430
N         6.00468820387670    4.09467897092451    7.75173611972722
C         3.84755279310317    6.13578468721018    7.32883714825584
C         2.78239011252306    7.10443734738534    7.35668509974711
C         2.09119573853402    7.36018031924033    8.51324045165180
H         1.29123036197684    8.08395967465373    8.53199457685757
C         2.40961242018758    6.68564317026162    9.70116761739997
H         1.84991249787916    6.90673430624411   10.59690493027095
C         3.41725465630405    5.76907095370421    9.71565806935101
H         3.67284893726287    5.25266508921627   10.63006936880307
C         4.15621266876685    5.47079231127496    8.54584672984716
C         5.19550551696681    4.51459589551767    8.66697269443458
H         5.30988134744775    4.09848789287747    9.67280586888633
C         6.26801012492006    1.69950330761736    7.99310224107937
H         5.41300634321712    1.62455202335969    8.66150815415186
H         6.96212032963766    0.88717653080343    8.19273879440382
H         5.89991317164626    1.60127791335169    6.97452842624962
C         6.96288743095418    3.05493326842653    8.14685072053535
H         7.78073468563315    3.09647050350387    7.41751564829664
C         7.55471122546560    3.28651103854908    9.52741225064449
C         7.32695358159731    2.42152276532840   10.56843401255567
H         6.70950864566529    1.54743915041672   10.43548479943290
C         7.88510658108824    2.63307176732346   11.83800706323653
H         7.67831700401991    1.92389805709128   12.62632148713771
C         8.67526538461555    3.71970341092988   12.06960298357240
H         9.10965914297852    3.89188637209597   13.04402518857925
C         8.93725542754028    4.64158468750999   11.03539652777905
C         9.74962154277511    5.77165133104306   11.26410752089714
H        10.16927314232756    5.91079524780333   12.25082291205375
C         9.99917049603855    6.67083490407745   10.26650366297704
H        10.62108030259797    7.53503777212761   10.45169536365584
C         9.44330523844433    6.47012637576090    8.99593996234157
H         9.62955316650547    7.17535703208395    8.20216153833016
C         8.65543781590095    5.38203439677524    8.74140947411299
H         8.24209792469184    5.27413821560991    7.75281807046893
C         8.37324514714537    4.43259444396778    9.74618418435324
C         1.58868061066845    8.73482827090704    6.10968783771750
H         0.58294362119871    8.35284248529718    6.31970020242568
H         1.61696641332493    9.12834377699261    5.09412998819975
H         1.82200280852744    9.54241568175424    6.81188160769207

