78
CSD_code = CIJNUF | q = 0 | S = 0 | Stoichiometry = C27H39BHgN6S4 | MND = 4
Hg        4.81330908749282    4.11162881673645    4.16874724819292
S         6.20003724306854    2.13415331842204    5.40632818820249
S         4.89753591019617    2.83254435429297    1.73922616758608
S         7.00969657609666    5.60957291776256    3.59155527721696
S         2.94127755177110    5.21912312418646    5.27981564260394
B         8.15023413446033    2.54611886122655    2.65791713117832
H         9.15875744712250    2.07887706853774    2.22398259254225
N         8.42369150584055    2.99003013137556    4.10996923544473
N         8.35524664616824    3.58620779896019    6.22694755649865
N         7.06401892161240    1.45242636410769    2.60286392087420
N         5.22301286949612    0.24919106771101    2.53618581037641
N         7.77133787293503    3.75005188874039    1.76932929429493
N         7.02880729047568    5.61559768892111    0.86940256606332
C         7.68872375193721    2.94909516514251    5.23446090790839
C         9.57109361223288    3.67395676194153    4.40028890276541
H        10.31614931868498    3.85020544182838    3.65330859645999
C         9.53329855579488    4.04411911610106    5.69792654247873
H        10.25351354301978    4.59683419019172    6.25916471575432
C         7.87835625643039    3.82995156324424    7.59587205274766
C         8.91008350061227    4.66049185261430    8.36136358580972
H         9.04971968985970    5.63485198965820    7.89915601509879
H         9.86594275992630    4.14541526162427    8.42861655903590
H         8.54479591103477    4.81773556451464    9.37287488178166
C         7.69453027401475    2.48770009675474    8.30815143114018
H         6.97237326121076    1.86957512762523    7.78326292268318
H         7.33397738554250    2.65801528025522    9.31854556094506
H         8.64107490017224    1.95271334053220    8.35853531190718
C         6.56619807000846    4.61816534232005    7.53667364710878
H         6.66991511924065    5.47434468280073    6.86963068447481
H         6.30665739908687    4.98061037930903    8.52725322969730
H         5.74361338714869    3.99762494866334    7.18494616626131
C         5.74807366400174    1.48157661077316    2.33290390508667
C         7.36940633182334    0.17920548593234    2.99467086602467
H         8.36488600032974   -0.09029158108126    3.27814717536645
C         6.24279899451359   -0.56324802305166    2.95751738159453
H         6.10946522986694   -1.59292699113332    3.20463863597336
C         3.81180758100329   -0.14290320466586    2.41629989650564
C         2.97377076601981    0.70665502740341    3.37620471577276
H         1.96115797311693    0.31696750001143    3.42887791252045
H         2.91874027533298    1.74039687151777    3.04125952481886
H         3.40928187495183    0.68728565827920    4.37474499672814
C         3.64852907145299   -1.61432940497572    2.80146558280596
H         4.23268620626893   -2.26299446359763    2.15235112074128
H         2.60211507696417   -1.88627691913900    2.68992608462375
H         3.93049436791162   -1.78209469687694    3.83816930718368
C         3.36193389571070    0.04155033658663    0.96481368191166
H         3.95438190210137   -0.58679540732046    0.30247553397488
H         3.47492031607421    1.07635075629940    0.65579499393110
H         2.31628786851368   -0.23669231237542    0.86895452390816
C         7.25357566362731    4.96151794097611    2.03493592980585
C         7.85977530395136    3.63563341268690    0.41012562796146
H         8.23292036744940    2.74421931043149   -0.04848700397218
C         7.40381068004220    4.77716201649865   -0.14744107980822
H         7.32257123640517    5.03414693385555   -1.18017943121453
C         6.42166050461784    6.94360700177336    0.70320311184396
C         6.29539126970050    7.27311081406426   -0.78534201375866
H         5.64314873516569    6.56474411120557   -1.29046484899761
H         7.26750412617341    7.28986837670194   -1.27334738386275
H         5.85577609547960    8.26228462541907   -0.88292448125254
C         7.31730726432919    7.99191594536097    1.36745469671059
H         7.42763236785217    7.78698008527010    2.42794205951774
H         6.87410778834239    8.97659675414212    1.24980854258795
H         8.30369814983284    7.99317833956474    0.90738598204155
C         5.01990056554876    6.92763727141421    1.31880324418565
H         4.45337146361104    6.07985855362117    0.93696155003028
H         4.48900221631988    7.84167799297604    1.06863041994795
H         5.06485823688599    6.85490488324318    2.40329467354546
C         2.18504874466530    6.10255059088791    3.95456882900910
C         2.08387726217034    5.57752027583666    2.67106839206497
H         2.49830472103822    4.59752591488116    2.44962591384964
C         1.45144923881251    6.30011341322055    1.67722452931074
H         1.38310543059600    5.88580024862270    0.68139075321803
C         0.90179004481999    7.54086575488284    1.95395506771852
H         0.40526018984679    8.10004715698024    1.17452943428727
C         0.98888510646923    8.05736830476041    3.23646477043585
H         0.55910097087059    9.02273440461221    3.46221606735403
C         1.62752152145390    7.34624939213292    4.23377217531525
H         1.70242758526684    7.74161542529449    5.23530628751663

