67
CSD_code = CIJPUH | q = 0 | S = 0 | Stoichiometry = C21H34BHgIN6S3 | MND = 4
Hg       -9.29507730651248    1.20753923344972   12.01657264000632
I       -11.00026017444807    3.20923426612849   11.87396300649193
S        -8.01017467290907    0.35023825594324    9.86381685603406
S        -7.14818473819953    1.32700494093959   13.56378835718777
S       -10.06357975433534   -1.19273928077978   12.82954610039078
B        -6.77409016728337   -1.76688423194115   12.21395824080416
H        -6.00411026871742   -2.67588962797971   12.27395469530286
N        -6.06322280515400   -0.59729958634070   11.49800898576192
N        -5.46913943590154    1.19285653570470   10.36345488650065
N        -7.16037999408494   -1.38434816730087   13.65978034390813
N        -7.78402170754023   -0.43162483527088   15.54345223935363
N        -8.00443707510722   -2.24730668849888   11.41342558985660
N        -9.97657932488495   -2.61184473933232   10.50642708456208
C        -6.47766317736655    0.32485074475072   10.61285931896712
C        -4.76986798436496   -0.29413570419056   11.82104233693619
H        -4.22130582258577   -0.88243519994044   12.52623373449535
C        -4.40074520870866    0.80450087458856   11.12893103426129
H        -3.46776002441001    1.32273182744107   11.14044325947528
C        -5.51600918289000    2.37928812965045    9.49593291361312
C        -5.77311702406540    1.93387312766220    8.05426847528182
H        -6.71738152726396    1.40334298485140    7.97602493542400
H        -4.97460823131015    1.27800859411212    7.71215472002363
H        -5.81329831238749    2.80458729089615    7.40610811265516
C        -6.61382783679402    3.32374309503097    9.99475805521126
H        -7.60369558263585    2.92003399666429    9.79367379307424
H        -6.53659960654066    4.28159064728075    9.48835406265756
H        -6.51262542945608    3.48771624065545   11.06734110012101
C        -4.17641522278534    3.11522255964319    9.55567460108809
H        -3.35919813039379    2.48337620350624    9.21438388724346
H        -3.96893202998556    3.47260084890626   10.56163247699805
H        -4.22746293787517    3.97830626439039    8.89708724699661
C        -7.39035932407503   -0.20817988092859   14.26756808323475
C        -7.42767526731018   -2.36834964622087   14.57041598351747
H        -7.33008261430648   -3.40250890270539   14.31490311969341
C        -7.81233941404260   -1.78937949960050   15.72763131168266
H        -8.10264246955829   -2.25120253453517   16.64502804591041
C        -8.18238264653904    0.57670045745409   16.53694922366297
C        -8.61831570970263   -0.11615261756538   17.82909839678194
H        -7.81021518468195   -0.70529612864623   18.25740465131340
H        -9.48612884043790   -0.74988450327954   17.66185927500959
H        -8.89448022200128    0.64620478007752   18.55282900571813
C        -6.98459845649740    1.48058402688073   16.83907690511885
H        -6.15990223742129    0.89492724802976   17.24121006340284
H        -7.27050700489380    2.23121465410930   17.57029162545916
H        -6.64623530458818    1.98761651538225   15.94038649489491
C        -9.36672940788894    1.37976719484941   15.99076517374220
H       -10.14130145717817    0.70760621959482   15.62240249509534
H        -9.05853597945521    2.03674436199202   15.18040496067390
H        -9.78900876018271    1.99823174210764   16.77756951132893
C        -9.32364222781827   -2.02302811885807   11.53583339333851
C        -7.82396905743248   -2.98298951132517   10.27532967401897
H        -6.84719126265575   -3.27789601855131    9.95402707847679
C        -9.03075165700376   -3.20806283460444    9.71382219698580
H        -9.26544116913614   -3.73766620458529    8.81738806098060
C       -11.42034624854683   -2.56559539194410   10.23085283609572
C       -11.72077148349254   -3.30837413876805    8.92786362241300
H       -11.42394727897953   -4.35331100554599    8.98746977572749
H       -11.22768754543833   -2.83412294969866    8.08247028289374
H       -12.79282186199312   -3.27625420192066    8.75194678384814
C       -12.16989720147360   -3.25068952450709   11.37613703299105
H       -11.86016115364748   -4.29053831871543   11.46329419643648
H       -13.23822060704899   -3.21834207188172   11.18241794946677
H       -11.97638212252610   -2.74920192597732   12.31968912031858
C       -11.85492496775141   -1.10552727576340   10.07120159369892
H       -12.86743409235974   -1.06107645543474    9.68042143536901
H       -11.19160620813810   -0.58729313768080    9.37906377710733
H       -11.84349285690572   -0.58331300185850   11.02542377290524

