71
CSD_code = CIJPAN | q = 0 | S = 0 | Stoichiometry = C23H36BHgN7S3 | MND = 4
Hg        7.70704599442740    6.44756622171084   11.35146842289581
C         8.38933971131137    4.27274820268181   11.25839814758722
H         8.44908549005126    3.88114963367853   12.27658114345863
H         7.66663160525807    3.69814811281055   10.67432430356480
C         9.66281678650563    4.23814922491890   10.63803140505242
N        10.69378510301454    4.19718797937928   10.13044883526625
S         6.90998386873530    7.81942868895285    9.12209994920563
S         9.57506871455725    8.27058016032617   12.10691777222234
S         5.72635418327837    7.59191493825244   12.92809099787974
B         6.98742725733864   10.35320253161598   11.38812974422947
H         6.78841867240983   11.53050980921123   11.38230998715730
N         7.98103316078278   10.04248362425221   10.24862698585629
N         9.19617086510670    9.21036965735990    8.61299035462695
N         7.57934699055432    9.98745903582297   12.76596053286913
N         8.62505840815430    9.14081427682689   14.50682730317975
N         5.63172833580832    9.65114120268611   11.16183774980155
N         3.87965522160969    8.32333905018533   11.06602826075553
C         8.07252752812294    9.04533167265396    9.35150621020125
C         9.07717775775681   10.84152597633859   10.07873663848378
H         9.23796818659831   11.70154044731700   10.69419789006350
C         9.82722417605496   10.33437132606227    9.07770634188206
H        10.75211653377079   10.69308956165891    8.68402673933303
C         9.69483532950462    8.32666094435761    7.54925012399228
C        11.03760134154676    8.84532418600319    7.03273715160216
H        11.38165161787179    8.18276089503577    6.24306024797537
H        11.78615136005986    8.84356656582095    7.82128983353356
H        10.94572191794404    9.84525792108897    6.61375035394515
C         9.90221765470021    6.92038787477752    8.11653927393839
H         8.95276370762761    6.43490537851959    8.32846247649328
H        10.48408206141759    6.95931220782060    9.03620319817818
H        10.43734652038182    6.30376588906138    7.40094710705244
C         8.68647568147221    8.32204835453813    6.39717955459687
H         7.71811723479361    7.96537041783226    6.73567912352425
H         9.03937023890945    7.66536103833589    5.60726157542071
H         8.56741047044625    9.32573557759012    5.99283265995388
C         8.54804328244710    9.13970452827183   13.15293798650202
C         7.02815770510327   10.51982313046799   13.89792739743836
H         6.21931623009720   11.21799729460040   13.84578550490640
C         7.66470549981969   10.00281157294180   14.96975805360338
H         7.49341456235319   10.18816513037649   16.00683326961115
C         9.51445400850230    8.32183641741590   15.34059380702609
C         9.25181985496467    6.84175394607957   15.04616018556320
H         9.60748528304800    6.57284477918102   14.05418309529870
H         8.18441678388107    6.63158604357945   15.10484885595835
H         9.77227612784626    6.22246562623508   15.77125320663761
C         9.22532880271053    8.58391895851647   16.81987508867851
H         8.20646006016646    8.30363205472923   17.07686003543590
H         9.39532981969775    9.62649510042967   17.07938043749811
H         9.90159442441602    7.97756596959347   17.41685926235717
C        10.96772533152991    8.70026737035766   15.04459571481925
H        11.20506348057581    8.52368287488631   13.99981988306387
H        11.63382740083195    8.09896986446434   15.65668523724631
H        11.13794674805942    9.75151620059932   15.26895285957014
C         5.07591045985438    8.53682722064348   11.66832418982954
C         4.77553150259624   10.13797855911177   10.21418529204561
H         5.00915083695630   11.01981776356253    9.65565821496666
C         3.69922081109755    9.32657879804309   10.14934668573953
H         2.84104706221470    9.39837839614015    9.51887912264170
C         2.96922245942967    7.19233749052763   11.28498873457307
C         3.70815555664671    5.88977136599460   10.96401423165398
H         3.01046198467556    5.05709052250531   10.96905699244422
H         4.48198621090296    5.68934951462550   11.70141579682376
H         4.17221546154742    5.95508518812456    9.98075702640798
C         2.47990790411583    7.21574913126564   12.73536829059386
H         1.94833378044951    8.14312502408622   12.93964021272918
H         3.31559423044471    7.13445450313919   13.42395454227699
H         1.80639292363704    6.38102647670523   12.90758634208893
C         1.76110391801560    7.30934577739891   10.35393148298549
H         1.20381469093617    8.22491441844180   10.53929498467850
H         1.09636364952245    6.47037776621514   10.54303875247143
H         2.06401146302845    7.26954663525758    9.31031082804537

