47
CSD_code = CIJQIX | q = 1 | S = 0 | Stoichiometry = C18H23ClN3RuS(1+) | MND = 9
Ru       -1.02174031939840   10.02920264430086   10.49187318566272
Cl        1.04015280807034   10.73301061218026   11.32135528821653
S         0.22979067569202    8.36676605839673    9.37194171597797
C        -2.18522106444970    8.32506727763962   11.44582537335945
H        -1.92266766709992    7.27157188506832   11.40101919777412
C        -1.71194508724297    9.10936777963576   12.50649553354210
H        -1.08392649406596    8.65710619897284   13.26758551185892
C        -2.20110741335241   10.43061995504256   12.71292655551075
C        -3.05392935998551   10.96421388780234   11.74427725375246
H        -3.48544024453354   11.94653603699456   11.88739786166128
C        -3.04631485328445    8.86701365587904   10.45809919322209
C        -3.40823165849196   10.21940340736972   10.59445639358543
H        -4.09941735769206   10.66394611061085    9.88794059382604
C        -1.81954160065254   11.18682682567767   13.94131904026211
H        -0.74985105322168   11.40029539417328   13.92913653750571
H        -2.02244931285942   10.58918954723047   14.82920645781919
H        -2.36366486956214   12.12482045090722   14.01013520246400
C        -3.60153547399223    8.00442480035840    9.35048044174338
H        -3.08170488983919    7.04057922322949    9.37462952418458
N        -0.56854033375816   11.13118021394166    8.87691544906440
N         0.31036236196743   10.57556828657675    7.97483568796745
H         0.63312053855136   11.17249410777868    7.21341445461962
N         1.67260284223444    8.85569006026206    7.22289901059922
H         2.09186212408521    9.43525881197232    6.51375189949502
H         2.06643359773892    7.94128501336705    7.37813955783052
C        -1.31689280645010   13.30169988790210   10.78866205562157
H        -0.42886610879378   12.77328305510050   11.11433337872557
C        -1.77915313232558   13.13654479505902    9.47766748453659
C        -1.04902522218556   12.28580550621136    8.55715074841055
H        -0.85461222113773   12.68997620971702    7.56346405372523
C        -2.86940141865919   13.88972649049892    9.03319811600045
H        -3.21916651837016   13.77564439608785    8.01787926142110
C        -3.50697496914236   14.76250463410667    9.89348959547548
H        -4.35665971981797   15.33108513887703    9.54864032136686
C         0.80059164555439    9.32839663958071    8.11629571649150
C        -1.94166622644118   14.20481691411748   11.62913471311993
H        -1.55861175748671   14.35755586698744   12.62659870144758
C        -3.04234504440435   14.92598497387088   11.19050549317661
H        -3.52774777652370   15.62713054912354   11.85161375771259
C        -3.36299838867159    8.63865217525064    7.97818077160428
H        -3.65682173911615    7.94489444812570    7.19564941496605
H        -2.30446018800281    8.87448621344952    7.85065147512136
H        -3.94389306440937    9.54977638141047    7.85733073820759
C        -5.09426920848257    7.75653754961721    9.58944840760602
H        -5.65429597957162    8.68768944997303    9.54842129433463
H        -5.25590531396146    7.29888705486946   10.56248449430829
H        -5.48272073646017    7.08758342469193    8.82674308511757

