161
CSD_code = CIJQOE | q = 0 | S = 0 | Stoichiometry = C56H100N2O2Zn | MND = 4
Zn       14.41236699212269    8.24581976719894    9.11858852173138
O        14.66034326048648    8.97979970775709   10.74145180862063
N        16.30408728146104    7.30233805477129    8.94159283238662
C        15.84627644685605    9.27911769654087   11.25758650382293
C        16.94146323419692    8.41864733871969   11.07408119420146
C        18.19158673834472    8.73097437344006   11.58626739654377
H        18.99643802033719    8.03194086622659   11.41697299968065
C        18.40526900501929    9.89417746224567   12.30185763927834
C        17.30345650621603   10.71968433958861   12.51457867224879
H        17.45423830732398   11.61843680417780   13.08736777292311
C        16.03670275239481   10.45031418580723   12.03140327420609
C        14.86179417776238   11.37937983142354   12.31560284993589
C        13.77225436329554   10.58471190992362   13.04746477519356
H        13.47783525393847    9.72940371309748   12.44905396026877
H        12.89915735486306   11.21060282394071   13.22273689674441
H        14.14633190294167   10.22922002452270   14.00589588333385
C        14.31076714163216   11.92519745718409   10.99218146527720
H        15.08185376423980   12.48444367473855   10.46616198260176
H        13.46707566552930   12.58690073495779   11.17959825372980
H        13.97676592414216   11.11183045354476   10.35457114405475
C        15.23750281576541   12.57669332031947   13.19535506726315
H        15.62199934795174   12.25348198267370   14.16036565972182
H        14.34809655382690   13.17833413809524   13.37436435567803
H        15.97539603723620   13.20998992954260   12.70786782189359
C        19.76249048530882   10.29510242125559   12.86032527082208
C        19.67386136730388   10.38357576803014   14.39003913301534
H        18.94749330152738   11.13001770283718   14.69877912694132
H        20.64102942034829   10.65321280798964   14.81032400836223
H        19.37136426589372    9.42381538396002   14.80385650009751
C        20.86374985750465    9.29265015094438   12.50316642645257
H        20.65196625865799    8.31229438355111   12.92383879243184
H        21.81354648643772    9.63438478267394   12.91052187205335
H        20.97299061946810    9.20297546884922   11.42460266889119
C        20.16242980535809   11.66111923656435   12.28486597096980
H        20.20293539707623   11.61278743588163   11.19863852632426
H        21.14291201058643   11.95450997760144   12.65536991819172
H        19.44933677563714   12.43141654949756   12.56366738559513
C        16.75293575705581    7.12004794820541   10.33690755905421
H        17.68705765133300    6.54241039683739   10.35944017206953
H        15.98215556207532    6.52766667693894   10.84442829722870
C        16.25459521829927    6.00619274905729    8.27122792470622
H        15.54160307273340    5.35744251411640    8.78010692954980
H        17.22873150815818    5.50554006307656    8.27856524339740
H        15.93209323243158    6.14492038819733    7.24052387572792
C        17.16222191220696    8.24891755254848    8.20713288204246
H        17.13370402419081    9.19459490864063    8.75432575930542
H        16.69591578336641    8.41378563487784    7.23379201426668
C        18.62229397679446    7.83994674087447    8.00579919976037
H        19.09386107107011    7.63990370537104    8.96825583236601
H        18.68756989770954    6.93706043399393    7.39552124495500
C        19.39393794906150    8.95652847312641    7.30531017217286
H        19.37028510036903    9.85549382898339    7.92451126722940
H        18.90470733275331    9.19447082318433    6.35814987523295
C        20.84350720429669    8.55656995619950    7.03933192765611
H        20.86005862624706    7.63402526811220    6.45335071307953
H        21.34365304349927    8.35182819648319    7.98899757962397
C        21.61483371781951    9.63720795036878    6.28611776886059
H        21.10216832283980    9.85533454892837    5.34638558624659
H        21.62439079729458   10.55558404593405    6.87712055378414
C        23.04968659479503    9.20831617291143    5.98872744537173
H        23.03414176110738    8.27795662150938    5.41532439351461
H        23.56904633026900    9.00655901225050    6.92866957306924
C        23.81957787098663   10.26753419105020    5.20394427556104
H        23.29209952455927   10.47783441355446    4.27023261471502
H        23.84900573490783   11.19486632460657    5.78091184901216
C        25.24500435058110    9.82066563490801    4.88700747023780
H        25.20375959018600    8.88178766049618    4.33204967028799
H        25.78073649974326    9.63220363894071    5.82067848791097
C        26.00091832166011   10.86891889545283    4.07389859638533
H        25.95157334426822   11.82410120379607    4.60335262855789
H        25.50555879945039   11.00759788094066    3.11151593083902
C        27.47496605523240   10.52483820879572    3.85348420965617
H        27.94956340573621   11.35900425176363    3.33017006228039
H        27.96149722877118   10.42858996602207    4.82767130894033
C        27.72752929340227    9.24377480447856    3.05639974035635
H        28.80775870966487    9.08512225633712    3.00581466818521
H        27.29940299189529    8.39005358356824    3.58418668352559
C        27.17202826809314    9.29601072934660    1.63808355749012
H        27.55042424132747   10.17093820176823    1.11349842417821
H        26.08625758223487    9.34130703304884    1.64504394527487
H        27.46914493228211    8.40868443838230    1.08308857068053
O        14.16438521872652    8.97987010879868    7.49573489161453
N        12.52068456011988    7.30232204823469    9.29553483013891
C        12.97844588235554    9.27915619298074    6.97959419311939
C        11.88328128188197    8.41865599728256    7.16307566029714
C        10.63315732914585    8.73094932773373    6.65085961734391
H         9.82831174062614    8.03191448789305    6.82017014935069
C        10.41945709538021    9.89413424570219    5.93525050617184
C        11.52125878299486   10.71964730393559    5.72251441560388
H        11.37044527028615   11.61842526974354    5.14977075503717
C        12.78801074174391   10.45031266722481    6.20571572218784
C        13.96290263661399   11.37941859643601    5.92155355373674
C        15.05252973076288   10.58480745032348    5.18976668107200
H        15.34694930068271    9.72954131962784    5.78823220598789
H        15.92561382129526   11.21072650805862    5.01451919055749
H        14.67851749606072   10.22925550289595    4.23133271382566
C        14.51385398365606   11.92533415134269    7.24496588320248
H        13.74271966350168   12.48456559193108    7.77092989550505
H        15.35754715280465   12.58705336645966    7.05759752904888
H        14.84783083033211   11.11198822281787    7.88261046021383
C        13.58726420157791   12.57670773231977    5.04174422972547
H        13.20279666982968   12.25342992966753    4.07674697456559
H        14.47665649582901   13.17837427218779    4.86272747527179
H        12.84933004173100   13.20999222949061    5.52917984267391
C         9.06222398487550   10.29505382306495    5.37681274090718
C         9.15088360450676   10.38354677124515    3.84710432038973
H         9.87725057283875   11.12998659114261    3.53834560540761
H         8.18371226934638   10.65318384699070    3.42683448113151
H         9.45336159178527    9.42378338599535    3.43328044116185
C         7.96101283969822    9.29254535579746    5.73397244115430
H         8.17282038974675    8.31218384642130    5.31332081163894
H         7.01122577097784    9.63426008119590    5.32658483330533
H         7.85174329713965    9.20289748742140    6.81253508457945
C         8.66228067460857   11.66108266123222    5.95224461423140
H         8.62176818319083   11.61272603928569    7.03846639379446
H         7.68179119122734   11.95445818473930    5.58174680506391
H         9.37536484184930   12.43140044738922    5.67346921563095
C        12.07183819900030    7.12004120433861    7.90021624121367
H        11.13771984013256    6.54239861468673    7.87766899252730
H        12.84263254308319    6.52767056770780    7.39270117651022
C        12.57013313939470    6.00617278162316    9.96589327887583
H        13.28310737182709    5.35741146261272    9.45700295358385
H        11.59597985021937    5.50554910339559    9.95855683817710
H        12.89264341360390    6.14489329441135   10.99659685306024
C        11.66254971132057    8.24890244046204   10.02999442948905
H        11.69102806448617    9.19456276331912    9.48276946053025
H        12.12886612793436    8.41381175206539   11.00332661316983
C        10.20249208351985    7.83991113282372   10.23135412712974
H         9.73091764127274    7.63977563953323    9.26891760620414
H        10.13723648582517    6.93707752813844   10.84171504034393
C         9.43078607537383    8.95650878823301   10.93173730829958
H         9.45444665020442    9.85544389806164   10.31248972128390
H         9.91997080576156    9.19450494356455   11.87890661831844
C         7.98121453678027    8.55657574956077   11.19771076978360
H         7.96465487517856    7.63404515154297   11.78371434937525
H         7.48110784469549    8.35181003699426   10.24802952141911
C         7.20983123026732    9.63719364361479   11.95087997947741
H         7.72247535032776    9.85533601288114   12.89062231892166
H         7.20030871514046   10.55555125663698   11.35984722257215
C         5.77496464226182    9.20831408593605   12.24821815684704
H         5.79050087952046    8.27795541281069   12.82163051151612
H         5.25564651090103    9.00655140949327   11.30825213441626
C         5.00507086313436   10.26757657683156   13.03294200968543
H         5.53252802781004   10.47787748453426   13.96666844925228
H         4.97565772697480   11.19489965116626   12.45595077088172
C         3.57964999163860    9.82069626284373   13.34984823640162
H         3.62090521016333    8.88179205089394   13.90478538981180
H         3.04393341985955    9.63226744030969   12.41616525321244
C         2.82381898908885   10.86913251093780   14.16282171452003
H         2.87329292957283   11.82437846267949   13.63342392501835
H         3.31910043176898   11.00765400597407   15.12523862089654
C         1.34990948868404   10.52472936443418   14.38364715152034
H         0.87522775991502   11.35894467733408   14.90682950558824
H         0.86340911325022   10.42842150195197   13.40948769468534
C         1.09682754211031    9.24358499465437   15.18041634806751
H         0.01656736309928    9.08485459434381   15.23098786223141
H         1.52512780915634    8.38995496257632   14.65260986689911
C         1.65263109085569    9.29620326338022   16.59861139223186
H         1.27422816703386   10.17107330415097   17.12328933659799
H         2.73843303178995    9.34138932232944   16.59178835051166
H         1.35541222702336    8.40886926030928   17.15346991774345

