73
CSD_code = CIJQAO | q = 0 | S = 0 | Stoichiometry = C23H39BHgN6S3 | MND = 2
Hg        3.35816625766403    8.18759270009452   10.16541385432779
C         5.42441544134542    8.94339758749020   10.74686336092552
H         6.17344535981211    8.20287805788471   10.46069298920799
H         5.41608875838786    9.05624005426377   11.83211672802198
C         5.68617437077247   10.27643408519377   10.06800500911830
H         4.93999097970274   11.02539442731047   10.33651101436573
H         6.65894822878551   10.65585152009941   10.38719314797829
H         5.70802121732866   10.17452322255826    8.98312073404275
S         0.66920548740554    8.14691949663923   10.98948355628249
S         3.16987821049703   13.13555543768548   10.61770089906926
S         2.70337265430852    8.72711742748069    7.45166854655384
B         1.34955590911567   10.94250829500136    9.37670542812563
H         2.14345884097742   10.45445580472128   10.13528759985186
N         0.23299605715879    9.94583552610401    9.01572817208771
N        -0.94646592120997    8.10292991530423    8.79308861002390
N         0.75615066920163   12.19724171888253    9.99273843164886
N         0.66236192095312   14.06096598286831   11.17350983667976
N         2.07545775453214   11.28699446666116    8.05139654163162
N         3.37420614083060   11.09517212641505    6.28530308252727
C        -0.00690596120280    8.73303906432512    9.54186766466282
C        -0.56309352251889   10.08068982704324    7.91401896632678
H        -0.54091311592675   10.96567821043498    7.31129374603236
C        -1.29205878136904    8.95177328047104    7.77249224693241
H        -2.01621311583542    8.70811054361940    7.02668977597691
C        -1.42787476173455    6.72723533116617    8.96902724954601
C        -2.40603843471157    6.36975955982868    7.84861467571099
H        -1.92561815816935    6.42194073747458    6.87424646278379
H        -3.27931053210919    7.01837374717988    7.86089299601178
H        -2.74719671385928    5.34899845779283    8.00015980086365
C        -0.22770219122125    5.77895582023100    8.89861844404593
H         0.43997118757848    5.93936025495147    9.74132117897007
H         0.32927007684869    5.94574299361272    7.97809389301086
H        -0.56909761700864    4.74799277782025    8.92195470143292
C        -2.14943381245845    6.61688074275615   10.31421301018826
H        -1.47652920540740    6.86409558936467   11.12979409626869
H        -2.50894447943037    5.60149796868924   10.45445721808298
H        -2.99926984440250    7.29594888246739   10.34404991955194
C         1.50665619109297   13.14164111684481   10.61748003251106
C        -0.56245918322993   12.52534311873028   10.17015807228966
H        -1.35550723635373   11.92190949657986    9.77848787914009
C        -0.62545346503447   13.66405518687374   10.89094663297166
H        -1.48685108987057   14.20672754200143   11.21397334890760
C         1.06318771785155   15.23753455408236   11.94685105556509
C        -0.17235747208044   16.00417434270244   12.42093607949284
H        -0.76432577630450   16.36036180614189   11.58036601250580
H         0.15425096518543   16.86910700914089   12.99253317224677
H        -0.79412873257121   15.38860466855501   13.06722606955704
C         1.90853261092822   16.15019333849997   11.05314344936453
H         2.79498202996378   15.62062017793119   10.71496438401313
H         2.21844907618923   17.03007214765774   11.60940994177708
H         1.33422786211577   16.46790393785209   10.18456462849608
C         1.86663081169235   14.77640049151607   13.16578126112372
H         2.75569627941858   14.24102141666521   12.84493762791206
H         1.26512475636800   14.11504387880580   13.78619658011120
H         2.17023817861247   15.63541012383265   13.75732779001264
C         2.75158283640799   10.41686754498351    7.28295230274834
C         2.27639056213404   12.53361956430502    7.53757873491275
H         1.85093497556617   13.40688722927964    7.98446435413377
C         3.07314960797430   12.42493484981405    6.45139590952025
H         3.43781093135290   13.19393222268155    5.80732329259152
C         4.21820513153899   10.53053158352111    5.22620180935001
C         5.38505150821293    9.77508058573113    5.86691283833743
H         5.01943190016416    8.96065966220925    6.48551519998417
H         5.97546457448340   10.45069468025573    6.48275031473130
H         6.02378689969632    9.35959822539164    5.09274758336059
C         4.78110654622812   11.65160903067363    4.35094024206574
H         3.98808063403408   12.19570279915950    3.84299711570162
H         5.42221306682919   11.20951514092781    3.59266740318431
H         5.38089223304086   12.34482902924716    4.93600918972145
C         3.36715782639103    9.59981026955304    4.35790997320396
H         2.97528889928875    8.78032013745016    4.95290287832097
H         3.97257775271040    9.18950014804805    3.55487547821986
H         2.53311123533728   10.14740130045978    3.92333777303720

