106
CSD_code = CIJSOG | q = 0 | S = 0 | Stoichiometry = C54H40F6IrN3P2 | MND = 6
Ir        9.57665295277072    9.36361434405102   11.64036398539485
P        10.84744091907405    8.50909331415373   13.37366949293389
P        11.08404470696545   11.08505478567118   10.82927181254567
N         8.21882046909480    9.96504212969907   10.35372162908831
N         8.45024865980778   10.63091938058368   12.85721766221279
N         8.44689925784097   11.04559353315141   14.09732420282475
C        10.14656049956177    8.27533696150604   10.00588684773055
C        11.21699063773947    7.41418229062345    9.79794235925436
H        11.91054691234076    7.20598330781820   10.59879990828328
C        11.43673962335377    6.80583500720177    8.56828361153352
C        10.58664651127828    7.02841796934335    7.49424298443512
H        10.76285627191353    6.54350742434417    6.54678231486597
C         9.52275423137911    7.89140920682281    7.66165346459739
H         8.86557512723922    8.08342216295802    6.82725226796696
C         9.30614288733087    8.51666792797063    8.88582256191123
C         8.22635180069569    9.47596243306810    9.10611951409442
C         7.26682502164088    9.90177200182074    8.19141440220517
H         7.26405545717112    9.52061367518409    7.18381069004251
C         6.31208643996769   10.82231850348446    8.59648050274873
H         5.56163983589253   11.16151205048370    7.89816081241070
C         6.31200444308376   11.29882218969326    9.89600425195920
H         5.57167965519296   12.00378018744690   10.23698420012896
C         7.29122092298559   10.83930995299502   10.77415825928989
C         7.43066884502100   11.20170330500747   12.16051209364619
C         6.73360262620948   12.04444507155564   13.02773020356939
H         5.87606551066731   12.65407087412977   12.83345110160836
C         7.41931983581819   11.90113745494349   14.23153561235596
C        12.63245884475614    5.91235125498693    8.43989621448269
C         7.17586806739425   12.60208511401362   15.51222705408745
C         9.50327613027161    7.90319012759280   14.46903823713003
H         9.86493814881404    7.18019755048810   15.20614317473161
H         9.13112291482117    8.79090731653916   14.99497019342149
C         8.42966482203283    7.34655605082500   13.57805066888751
C         7.55936457279363    6.38085124836841   14.06463741390535
H         7.66244998338400    6.04074834446372   15.08616581616023
C         6.56903912816174    5.85352039324849   13.25649402653019
H         5.89313249861334    5.10448224449304   13.64166585413263
C         6.46372426045441    6.29031748414890   11.95016420614316
H         5.70401665609174    5.88119283403989   11.29955040335448
C         7.33319061018746    7.25538407186986   11.46442360820701
H         7.21906366060242    7.55502533588024   10.43175289067279
C         8.32616915855696    7.81435426977928   12.26108846210747
C        11.89040942111260    7.04515923421091   13.08534028784410
C        11.31037322786328    5.78929790035399   12.93191892991664
H        10.24326483313555    5.67493607336540   13.05252281607532
C        12.09548356628341    4.69840047624514   12.60476288911316
H        11.64071529218274    3.72676300328717   12.48503143635662
C        13.45917676765006    4.85152890430697   12.41466455029298
H        14.06628279483361    4.00013954372663   12.14786868622830
C        14.04047547625082    6.10174232773052   12.55207102436736
H        15.10127567289838    6.22657812786105   12.39268026944343
C        13.26046470321888    7.19548760101413   12.87999597312424
H        13.71327192355733    8.17284004276288   12.98104940519128
C        11.83130005982486    9.45590119191120   14.58172690936421
C        12.57898423677704    8.80702167358671   15.56000534754656
H        12.63659267201162    7.72746239900743   15.56710512375050
C        13.24985264429925    9.54569056902546   16.51715570684760
H        13.83105165459705    9.04028943116733   17.27448136044748
C        13.17380036913064   10.92989424698289   16.51238922639311
H        13.69805915793198   11.50075256669871   17.26421642391515
C        12.41999500643638   11.57864143260177   15.54876938838033
H        12.34675977175348   12.65637283065709   15.54983829530148
C        11.75196103469216   10.84176168071282   14.58788293157097
H        11.15096760428724   11.33296898402738   13.83797689966063
C        12.87163011184735   10.72589728468368   11.22767391807086
H        12.87987818999027   10.47606777558849   12.29262870662459
H        13.13642907730331    9.82454317551171   10.66977544892977
C        13.81297849700360   11.85467395572705   10.96368267668439
C        14.48817575580183   11.97782128333155    9.75518111668463
H        14.35646371062584   11.23107150334647    8.98639958285616
C        15.33277604153677   13.05016614508761    9.52795535205706
H        15.85040557765850   13.13232500340536    8.58346366779128
C        15.51539923183257   14.01354748761786   10.50482446627654
H        16.17231219314995   14.85124206254314   10.32442992123399
C        14.85624710978746   13.89364832376255   11.71661896463412
H        14.99788424875128   14.63748740146659   12.48653497927327
C        14.01241127800561   12.82287480476221   11.94330294732367
H        13.50040945780253   12.73043897423698   12.89082501103588
C        10.98056215673083   12.88048209856833   11.17651170764944
C        10.30348165793736   13.34814958220220   12.29579769851735
H         9.80193038126258   12.66067196200097   12.95621373832167
C        10.25850562951693   14.70207902300689   12.58037266270114
H         9.72833637685315   15.04335655842833   13.45709383838921
C        10.89051266217021   15.60501721647933   11.74422661396744
H        10.86041123974165   16.66170101526251   11.96458127925254
C        11.55903366313239   15.14920817860564   10.61860904743151
H        12.05239150518377   15.84937421314331    9.96052640462716
C        11.60441815154095   13.79872045116086   10.33262713436065
H        12.12458656203130   13.45629903096698    9.44957968355564
C        11.03591805532202   11.13598037865145    9.00627849179395
C        11.83446116838078   10.33451059207346    8.19885571988174
H        12.58647164528988    9.69491176414859    8.63478091784825
C        11.65747978200309   10.32652433804503    6.82727576550836
H        12.29018644345704    9.70447941739194    6.21150702353838
C        10.66824640284742   11.10069819698531    6.24550558799439
H        10.53069062150101   11.08974755701541    5.17461846155035
C         9.85061640039871   11.88394740117475    7.04337691530722
H         9.06877961758939   12.48225895917519    6.59858757276628
C        10.02979690173396   11.89700212924711    8.41297469653888
H         9.38677287289363   12.50808254451186    9.03466614443737
F        13.76256689088833    6.52077976139136    8.86364495678356
F        12.87908504876096    5.51389554941093    7.18234797054766
F        12.52930363401100    4.78848210022861    9.17558259047138
F         8.04236769319180   13.62633816147419   15.71318268607863
F         5.94943355573561   13.15323820235450   15.56937944000198
F         7.29071538909844   11.81303710812649   16.59207963599146

