106
CSD_code = CIJSUM | q = 0 | S = 0 | Stoichiometry = C54H40F6IrN3P2 | MND = 6
Ir        3.37086190716295    6.20794702410758    4.71231804142713
P         2.79488916993297    5.72343766736284    2.55526576115025
P         4.19611145604810    6.84236279869715    6.79843385500640
N         1.58218224099771    7.10111476307580    5.09607276874167
N         2.23496796750903    4.60056825451663    5.50424925085010
N         2.39211690745667    3.32829113581186    5.75275811146794
C         3.76847482439597    8.09762212936823    4.05010765376238
C         4.92532680554976    8.64341046901628    3.50422363059076
H         5.81561733860386    8.03588239632011    3.41677844387209
C         4.96667287775626    9.96135143604733    3.06513950962823
C         3.85225745597269   10.78366649956489    3.16269420505747
H         3.89435237025923   11.80337956959999    2.81295525243598
C         2.69625241626332   10.27330535681327    3.71724837017067
H         1.82895554649943   10.90999329695049    3.80127953941598
C         2.64125783565291    8.95446522116520    4.15933729688042
C         1.42920346058209    8.37741448319846    4.74320450731757
C         0.20011323714303    9.00086894732662    4.94007061958780
H         0.05066478125458   10.03284372931436    4.66955543918167
C        -0.83963454042009    8.26529081286929    5.49109009105203
H        -1.79812196983681    8.73554922286057    5.65534065275536
C        -0.66248954559628    6.93270698385599    5.81832910926874
H        -1.46502109570635    6.34251263816390    6.23004904557788
C         0.59102676681048    6.36163239807336    5.59774195560336
C         0.96942755000736    4.99098780492776    5.82718220953708
C         0.28474584046094    3.87726747627189    6.31530473156588
H        -0.72477695520866    3.80628947086214    6.66370909007003
C         1.23447338628744    2.86178797837090    6.24416497945849
C         6.24390528399927   10.46004998994078    2.45911749436741
C         1.09242959097199    1.44053062912857    6.63253771842781
C         5.12967822508879    5.28416699039091    4.07525571288947
C         6.07724194424308    4.71609130301491    4.92905455185639
H         5.92342069102264    4.75785592034774    5.99953944897853
C         7.21510315174036    4.07684531233871    4.46362474639276
H         7.91704806681594    3.65210168827360    5.16711860268853
C         7.44829163829866    3.97692416574091    3.10551235027070
H         8.33100044759211    3.47961844629369    2.73238795699444
C         6.52713731750101    4.51685269684002    2.22655785488740
H         6.69114896916510    4.43748717952523    1.16047297677265
C         5.39024267302307    5.15834957531226    2.69519449603203
C         4.41670862155440    5.74480623953072    1.69925153984798
H         4.38847830653564    5.18254039015426    0.76164578416701
H         4.69185971374164    6.78184561336770    1.48542331302231
C         1.67581766675034    6.91138696829955    1.76522099416580
C         2.11374891951614    7.96965633279664    0.97803802231218
H         3.15266753888968    8.04473813298810    0.69425918188364
C         1.21822312870508    8.93671505031841    0.55618228501096
H         1.56527490369891    9.75511633443057   -0.05702577136576
C        -0.11470883373528    8.86367310075324    0.92382020409611
H        -0.80829629889616    9.62426651326793    0.59757076181456
C        -0.55845849853453    7.81420110038496    1.71329982698309
H        -1.59689667790589    7.75522153127129    2.00519856865355
C         0.33242301620192    6.84760396652130    2.13599540462828
H        -0.00525524004255    6.02978680640175    2.76068505236017
C         2.14637949167294    4.08593424762262    2.11439731415306
C         1.16630421683260    3.88965942624478    1.14713516288487
H         0.74179782409995    4.73343432215531    0.62044520316723
C         0.73515616072587    2.60683456033202    0.85824542525848
H        -0.02892204179651    2.45640489083181    0.10922534509533
C         1.27543333520725    1.52097410483017    1.52778775666177
H         0.92382131673906    0.52402969713251    1.30801747412512
C         2.26578763497630    1.71339519659206    2.47784664661106
H         2.68503702262354    0.86990605902059    3.00369383158483
C         2.70573403929962    2.99092102887268    2.76929902418270
H         3.47030467809230    3.14963437915413    3.51592591671348
C         7.17471812277919    6.73516699803469    8.75850919647129
H         7.30850137761805    5.81049450446769    8.21563555921873
C         7.69754415854588    6.86979058381457   10.03101900816860
H         8.23710898476098    6.04886061177228   10.47925896666682
C         7.52751748811232    8.05288210774211   10.72996328683238
H         7.93318794886442    8.15919838649468   11.72493784687247
C         6.83903915290958    9.10151105162622   10.14463898407938
H         6.70755846449428   10.02943766370062   10.68189835171007
C         6.31647245910648    8.96623191851303    8.87058126924656
H         5.78053130040419    9.79025727387843    8.42227883637712
C         6.47571530405856    7.78030402941117    8.16325657211672
C         5.89498630594325    7.60475123715254    6.79891719458598
H         6.51523599463619    6.93752539043917    6.19657587651193
H         5.81456857422497    8.55383859752727    6.26586909883998
C         3.11454105278025    8.15734608341395    7.45046516994021
C         3.28391483505988    9.49580285165615    7.11366544628038
H         4.14408881914587    9.81033833202717    6.54120600407282
C         2.34623608014737   10.43882295774962    7.49614871706969
H         2.49562664664893   11.47654940271776    7.23548899347176
C         1.21617164488255   10.05514026035041    8.19693716843500
H         0.48265690089609   10.79171952659248    8.48926398064540
C         1.02536310676667    8.72001566049684    8.51522167092291
H         0.13951394389341    8.41196263093601    9.05118531644788
C         1.96395326229072    7.77834185716424    8.14094947259623
H         1.80825775339923    6.73493395665452    8.38229543656409
C         4.24521045522584    5.70309337726406    8.22341885581361
C         4.24742100956386    4.32656763260920    8.02781924653484
H         4.19040924825309    3.91885902872933    7.02980474280154
C         4.28920363357495    3.46886569123415    9.11420938784651
H         4.26973486116468    2.40237427475631    8.94945990192301
C         4.34094419683483    3.97778079912871   10.40023886925992
H         4.37452539209122    3.30883022628068   11.24733977278234
C         4.33820068598532    5.34944379937862   10.60091927227531
H         4.37367313823439    5.75218233866509   11.60264480458111
C         4.28510960138665    6.21031454102940    9.52180269648088
H         4.26673972561204    7.27812797962065    9.68857726009226
F         6.55680925743070    9.79517489828857    1.32650704323294
F         7.29882470472849   10.30122297355993    3.28166816253030
F         6.21629015299894   11.76038629297903    2.13116714708558
F         1.29853008704138    0.58338391586284    5.61194332585529
F        -0.13802356861772    1.16376978259275    7.10484284192636
F         1.95341175589441    1.06518871879822    7.60130694488938

