27
CSD_code = CIJTOE | q = 0 | S = 0 | Stoichiometry = C8H11CuN4O3 | MND = 5
Cu       -0.17433223895921    7.25163350532526    2.92612316061079
O         0.28933513552498   11.03560174776505    1.81792660169511
O        -2.84518372096388    6.00308886552037    5.62100494883551
O        -0.30972700982634    5.52820863815198    2.58651006162395
N        -0.14855496001013    9.07090349258332    2.77716224103602
N         1.97976271930795    7.29971541510620    2.58071990566403
N         1.70305709350454    5.40735863218822    4.85769570559926
N        -1.09789722571464    7.31424812681995    4.56501002876092
C         0.53900692203740    9.84611414833548    1.93407945526305
C         1.70443746345424    9.26343939848860    1.12667423947713
C         1.98874382877271    7.76764328554056    1.19126692917343
C         2.73294668061279    6.06879893507592    2.80839558435086
C         2.94977454107738    5.78958617137891    4.30682929841211
C         0.73275983927725    5.94786563628802    5.31676580497868
C        -0.38036987762003    6.56259707016512    5.60177744890313
C        -1.81479639289837    6.47974745464830    5.30780223924001
H        -0.85392338821708    9.60562193284037    3.27555107447942
H         2.58678971669142    9.81690279718699    1.46535129947107
H         1.53750421980634    9.55541677161246    0.08780651014778
H         1.24484850356968    7.19393197552592    0.63291055046399
H         2.97123251315610    7.58128763384355    0.73063311349879
H         2.36309723946747    8.04199834758565    3.16861147980254
H         2.16245178113347    5.24562595255381    2.36889368603161
H         3.71888903579694    6.12996641926445    2.32590450988256
H         3.37443341181171    6.67354213257251    4.80266709878930
H         3.63655900698159    4.94620416298645    4.41404745473832
H        -1.14454483777457    5.10815135064547    2.80037956907038

