73
CSD_code = CIJVEW | q = 0 | S = 0 | Stoichiometry = C21H39MnN3O4PSi4 | MND = 6
Mn        2.50008626228409   -4.63790799813246   11.25111724751659
P         0.15132954997565   -4.44326446955388   12.48574735694509
Si        0.19731074186479   -7.24522148652249   11.46723364356686
Si        1.14598823180048   -1.75474809360229   13.24510297808003
Si       -2.81133628073272   -3.95022692537074   12.78010622127314
Si       -0.87052976885285   -2.84467502818555   10.43084536697198
O         4.54688946923190   -5.66653542474948   13.07500824352713
O         3.49412063712542   -6.62955213502323    9.33892347497175
O         4.40852173384348   -2.62069656956314   10.28555799619451
O        -0.06252409032703   -4.77402158783286   14.03994873273424
N         1.35789267738599   -3.29000780626501   12.31692666842875
N         0.87434637226895   -5.66766269070950   11.73241953851967
N        -1.23744614591294   -3.79809560607812   12.01606645310740
C         3.72355201415856   -5.22785732369936   12.39505442982711
C         3.09733932713618   -5.84433968112276   10.07878635903693
C         3.64573929624135   -3.40115956954856   10.65940288518479
C         0.84579814289425   -5.48880740469253   14.79709351538988
C         2.13972353471397   -5.02938512420792   14.98855906063746
C         3.01190477337058   -5.74744203084967   15.78903598939702
C         2.59589802957990   -6.91502134004629   16.40369632864329
C         1.29717441017211   -7.36107477359265   16.22365220129224
C         0.41967969235139   -6.65209429540085   15.42374981539540
C         1.55683914319216   -8.48045597754996   11.98883838842373
C        -0.23130275799706   -7.41931060654339    9.61347019093738
C        -1.36433559965822   -7.55852325517746   12.51288966869803
C         2.88187236611936   -1.18238990528913   13.77040531770203
C         0.78933510735869   -2.15780370551220   11.47046520969815
C        -0.13027218332126   -1.68426792522514   14.63571955033847
C        -2.82251282307163   -4.40359742139501   14.63891205016826
C        -3.63301702847488   -2.23377668869521   12.67270851191278
C        -3.92162921354450   -5.26524364755154   11.94146590692861
C         0.39927417791703   -3.50620408873675    9.11470434989871
C        -1.44650180048173   -1.02565463077323   10.22541124892769
C        -2.38581239522828   -3.67188947935023    9.48562626053468
H         2.46016171621293   -4.11216519515526   14.51452420420230
H         4.02168819397331   -5.39170154630450   15.92287354857789
H         3.28012097094059   -7.47505482635879   17.02216641246029
H         0.96292803588106   -8.26843283866834   16.70399166889361
H        -0.59367035631775   -6.99029031319666   15.27889572299599
H         1.74687526005717   -8.44028164325923   13.05865330702416
H         1.26453030679310   -9.49458032939354   11.73912079300113
H         2.49586077138019   -8.27157715741319   11.48494010569105
H         0.64767440072693   -7.28020878594444    8.99032914621561
H        -0.62516136327663   -8.40952072972735    9.40703441450982
H        -0.97524230165550   -6.69219321005036    9.29759595725018
H        -1.70048857866555   -6.64256675155287   12.98669442617509
H        -2.17734589914092   -7.93116060851080   11.89853498429823
H        -1.17748796758872   -8.29783980159461   13.28583340614727
H         3.11969233171762   -1.48308644880387   14.78760217115300
H         3.64939056638474   -1.58042685482116   13.11142470461334
H         2.93507359490645   -0.10064522342375   13.73247846136260
H         1.57094514135613   -1.77351794189413   10.80182516609897
H         0.16776759354983   -2.29334333192462   15.48642138693745
H        -0.23925204105935   -0.66086626397020   14.98145473392501
H        -1.09523599126711   -2.03422552690998   14.28771116651956
H        -2.55595480840483   -5.44052888367169   14.81367490881034
H        -2.16189001154266   -3.79486911094782   15.24511609195449
H        -3.83232773370368   -4.26382469413642   15.01460154321807
H        -3.11988978742995   -1.47909883774381   13.26073240951254
H        -3.67800845096443   -1.87244822351032   11.65336441919066
H        -4.64957002908448   -2.30048508927379   13.04727188700166
H        -4.31132852590731   -5.96853890265812   12.67250752223798
H        -4.77478975629308   -4.78971435358796   11.46854835502705
H        -3.40293171471213   -5.83492465972667   11.17897585722894
H        -0.05343112962270   -4.15787716318893    8.37596083109918
H         0.85685661075750   -2.67916354214065    8.58091888015261
H         1.21844695868832   -4.08426054882072    9.57915424580633
H        -1.58420477953213   -0.50139601032648   11.16270003045683
H        -0.70976247071851   -0.47552776718047    9.65364039448686
H        -2.37400706754548   -0.98524462624322    9.67230597790576
H        -2.33784542338651   -4.75780808695176    9.42414584819151
H        -3.34388389737064   -3.42471047997820    9.93124349834125
H        -2.41459797151684   -3.30037899448909    8.46288025051799

