107
CSD_code = CIJXUP | q = 0 | S = 0 | Stoichiometry = C52H48F2P4Ru | MND = 6
Ru        5.66344872673250   -0.00157110188101   -0.00064304099434
F         7.00718601022414    0.49156305899387    1.54035009567796
P         5.45158377188751    2.12115420455254   -0.85197798091205
P         3.62338330920635    0.52156315277538    0.93852175445261
C         3.64937511991020    2.33494104773074   -1.19852117063273
H         3.43179583302522    3.34098593068470   -1.57089854618072
H         3.42503772711147    1.61786741632030   -1.99322876927769
C         2.87160356554776    1.99797280354664    0.06629479918762
H         1.81391130692932    1.80953984113053   -0.14011637145176
H         2.94097772178156    2.82904398631940    0.77758443345975
C         5.89872049044923    3.54765002164074    0.18769432113605
C         7.14119260292241    3.47010726961902    0.81257548389499
H         7.75067315667655    2.59222913068556    0.65733067155484
C         7.57689338394726    4.48918988364984    1.63762612581422
H         8.54266890079597    4.41737518535009    2.11622918590562
C         6.77131966091385    5.59522408187585    1.85455506726214
H         7.10402428448581    6.39149871450857    2.50478373474974
C         5.53458913454340    5.67906871747878    1.23698878180567
H         4.90492091351252    6.54169683180941    1.40422041335910
C         5.09777228029736    4.66382635800827    0.40402915439505
H         4.13480368573938    4.75603329589495   -0.07708782627865
C         6.15175515663802    2.55480014193491   -2.47212849045357
C         6.83163627428184    3.73775644732610   -2.73369938795731
H         6.94754296806223    4.47903329008538   -1.95555727032694
C         7.36879796927604    3.95589118806891   -3.99083915977205
H         7.89757681479377    4.87610576946813   -4.19505620952727
C         7.23853611019502    2.99851976360689   -4.98353596590488
H         7.67013137115606    3.17133908751840   -5.95894437686036
C         6.55966498127850    1.81716836313859   -4.72505191892098
H         6.46391024435763    1.06560887990887   -5.49550976705119
C         6.01684687748311    1.59658423231279   -3.47389382860969
H         5.49580984995526    0.67552105425743   -3.25296422697434
C         2.31518623781161   -0.73564544217831    0.82971119610618
C         1.61603387840445   -0.92496827323156   -0.35933881626524
H         1.81558314398146   -0.28514627564339   -1.20576852105974
C         0.70027456854244   -1.95562070343304   -0.47211635813371
H         0.16206368507592   -2.09624934156599   -1.39867867054797
C         0.47897165944272   -2.81156853999586    0.59416104623228
H        -0.23456659589370   -3.61771477744183    0.50293416144415
C         1.17911042396215   -2.63479905253285    1.77631702221647
H         1.01530997346304   -3.30213504343131    2.61021377210303
C         2.09498248517983   -1.60597220518822    1.89446457637495
H         2.63879871242312   -1.46960665779897    2.81835119470048
C         3.45761639277799    1.16204908281466    2.63788794638362
C         2.25019191121476    1.18882574536196    3.32708527469517
H         1.36477722250023    0.75297306302500    2.88522405485140
C         2.18382864268043    1.77213972578217    4.57918774225660
H         1.24608677475413    1.78370463545869    5.11656567284161
C         3.31201530423459    2.34689585966966    5.14281454898688
H         3.25287724292118    2.80065236461286    6.12181068607125
C         4.51010426740325    2.34488928998530    4.44826590860504
H         5.38868935607590    2.80248753175920    4.87941332970242
C         4.58291155101641    1.75538075443892    3.19929441928788
H         5.51512217593224    1.74711293581549    2.65144854250245
F         4.31853693889035   -0.49146065932320   -1.54131664299195
P         5.87583492551336   -2.12152945407271    0.85238069010511
P         7.70429185424357   -0.52110564921228   -0.93876722039855
C         7.67812851357266   -2.33486083157525    1.19857412868069
H         7.89577815362694   -3.34090886245524    1.57089091944463
H         7.90248971618890   -1.61782422793560    1.99329994596799
C         8.45566241894607   -1.99768035753381   -0.06636081179282
H         9.51336524893444   -1.80929566225992    0.14000449715708
H         8.38634004648995   -2.82878779738151   -0.77762406841917
C         5.42869017379667   -3.54772006995292   -0.18769061681583
C         4.18618569031203   -3.47018873545578   -0.81252030894811
H         3.57669536377883   -2.59232456108910   -0.65726950238784
C         3.75048500974049   -4.48925581593854   -1.63758389802390
H         2.78471870530022   -4.41742294425328   -2.11619993018480
C         4.55607198888619   -5.59527083910252   -1.85453601494764
H         4.22337848877693   -6.39152627247872   -2.50478943476166
C         5.79280826611239   -5.67911635408327   -1.23697761444451
H         6.42247571679274   -6.54174136775366   -1.40420576518193
C         6.22966330553282   -4.66385583617869   -0.40406970349114
H         7.19262288523606   -4.75607122597705    0.07706370949184
C         5.17559357608777   -2.55498123108192    2.47245686244179
C         4.49566971136368   -3.73788517664505    2.73396958917920
H         4.37974815956263   -4.47914091633937    1.95580499666813
C         3.95849139519301   -3.95595708872133    3.99108753144960
H         3.42971201354542   -4.87616331856476    4.19530181313596
C         4.08877385332284   -2.99854438657516    4.98374946711064
H         3.65718506229368   -3.17133558370027    5.95915567536189
C         4.76764748883062   -1.81719367044786    4.72525043035908
H         4.86341018954882   -1.06559915602466    5.49566660356099
C         5.31048020250439   -1.59666757026393    3.47410857869141
H         5.83151218630081   -0.67560989905118    3.25311443009610
C         9.01262617492149    0.73579906983448   -0.82985745593425
C         9.71160075012451    0.92510795273042    0.35927365301249
H         9.51192720520495    0.28530430783413    1.20569506287838
C        10.62728085064560    1.95580054504506    0.47212458378216
H        11.16543348524005    2.09641743264781    1.39871798283453
C        10.84859464130194    2.81176016763210   -0.59414621615201
H        11.56212276292718    3.61790043715884   -0.50289117869964
C        10.14849915868302    2.63502217768956   -1.77633654078681
H        10.31227909551713    3.30236798448462   -2.61022077597928
C         9.23272630922460    1.60615099076793   -1.89456078327272
H         8.68885796818827    1.46979621908521   -2.81842073458369
C         7.86984159956634   -1.16199672633921   -2.63799268970319
C         9.07725962455841   -1.18886554009089   -3.32716945387383
H         9.96267418196252   -0.75299829645297   -2.88532644515295
C         9.14358848100693   -1.77219921660061   -4.57925730576169
H        10.08131774784135   -1.78376187943578   -5.11664974556848
C         8.01538515243567   -2.34694202232855   -5.14286616737851
H         8.07450166175341   -2.80070561689740   -6.12185795304787
C         6.81730901266490   -2.34491865738577   -4.44830499140512
H         5.93870555578346   -2.80249753413649   -4.87943808837723
C         6.74453432263171   -1.75538300263339   -3.19934705775465
H         5.81232779057165   -1.74710599578497   -2.65151447911084

