30
CSD_code = CIJXUQ | q = 1 | S = 0 | Stoichiometry = C10H11N6NiS2(1+) | MND = 4
Ni        4.56112269117220    4.02862605352140    7.62865505214916
S         8.84415424797270    4.51113234385695    6.83587119762760
S         3.15514564013907    6.12262831733638    4.08360644739468
N         5.18382149629898    3.08434112630025    9.17621626166316
N         7.48434631937727    3.27344292324319    8.87214210309042
N         6.32014522705143    4.32183128857607    7.12447644636654
N         4.17315377031746    4.94225287214589    6.10304533501884
N         1.80837128593238    4.95929062403846    6.09470387136838
N         2.74520538987078    3.85705724239026    7.95379242515754
C         6.71592481203702    2.07758920191464   10.80670525457359
H         5.81707026139679    1.71793403726746   11.29981713862405
H         7.26184209125961    2.71020950280871   11.50596566533979
H         7.34552532618533    1.22101860026064   10.56948145031326
C         6.38837505087090    2.84253719797312    9.56665784483793
C         7.43833874310557    3.98199800974415    7.70137618060852
C         7.81751967111851    5.22126695989889    5.64217117816336
C         6.50780263083844    5.02606276364294    5.95218823885965
C         5.24368476606732    5.38321927317355    5.34645564617879
C         4.87510482146133    6.04210821736231    4.21795298584033
C         2.98867575478713    5.24674896440694    5.58682008287246
C         1.72085094792746    4.29708552545193    7.23559786549279
C         0.33019557041006    4.05129698731282    7.73090892552597
H         0.18587797861828    3.00011512272201    7.97407883327600
H        -0.37956926035948    4.34924493268894    6.96622504527567
H         0.14942547447486    4.64173748655613    8.62839559304655
H         4.48640418139216    2.69152224863321    9.80894169104963
H         8.39718008680011    3.05144179954479    9.24706265258437
H         8.23776226063961    5.73070284614541    4.80014347995574
H         2.43636744485747    3.37411733406240    8.79941101422036
H         5.50477531797981    6.47744019702062    3.46953409352481

