57
CSD_code = CIKBOQ | q = 0 | S = 0 | Stoichiometry = C22H24Br4N6Pd | MND = 4
Pd       -1.90382488991718    9.47958409115649    4.02437312975729
Br       -1.20170094722768    9.21627922098264    1.68942470694729
Br       -0.62074168498916   14.73475163666077    1.23496297693546
N         0.77974695288040    9.56388357276119    5.36671695485867
N         0.45513848815015   11.34141448208778    4.24999529779514
N         1.64932098709423   11.50367325187303    4.85427152570503
C        -0.10768827399802   10.16979264531350    4.53528846088822
C         1.82731643434801   10.42119216455693    5.53624441317635
H         2.68863497031306   10.21581797342874    6.13671692784983
C         0.58607113087301    8.29016593849699    5.94082745025668
C         0.93660759347852    8.06101093491939    7.26420162593555
H         1.35783799634760    8.85955120206805    7.85614365104600
C         0.70963241846582    6.81519869420257    7.82176860109581
H         0.97213480514922    6.63911478756094    8.85351015996944
C         0.14139949282848    5.80395997409872    7.06524665432169
H        -0.03990514474400    4.83396107295028    7.50159332740118
C        -0.20058972008485    6.03436184687016    5.74220106261141
H        -0.63114541521200    5.23821728204025    5.15337996133339
C         0.01267067522028    7.27863782044848    5.17137607103759
H        -0.21043902794041    7.44334562993379    4.11383400391604
C        -0.06775844204592   12.32221310839213    3.33815866655066
H        -0.01244820862817   13.30808662528559    3.80694681301601
H        -1.12198793428623   12.05892716237990    3.15593682967083
C         0.70769964644649   12.30420713099159    2.01600959010047
H         1.65201766460621   12.83858847675468    2.13589211111694
H         0.92873767384711   11.26771412570042    1.74531715942819
C        -0.10785380808964   12.88603394155319    0.88126234813182
H        -1.03528034806077   12.33186104026793    0.73811965836090
H         0.45936382178631   12.90037021402582   -0.04733223655789
Br       -2.60562092074922    9.74420981762592    6.35885520274657
Br       -3.18716555724269    4.22539958659056    6.81326389330223
N        -4.58759070537487    9.39645782172354    2.68162558946578
N        -4.26310332199126    7.61883190760170    3.79824985313149
N        -5.45728279193527    7.45668668560644    3.19395427726338
C        -3.70020810329136    8.79041432611454    3.51303322152424
C        -5.63520630668680    8.53921296712123    2.51203690070695
H        -6.49650457337433    8.74465948302440    1.91156284170729
C        -4.39386960167066   10.67020529129834    2.10758811497065
C        -4.74440793415781   10.89944307331474    0.78422803933103
H        -5.16562999764399   10.10094154101887    0.19222896815844
C        -4.51745985335671   12.14529701879559    0.22674145119009
H        -4.77999417693766   12.32145270431208   -0.80497951613144
C        -3.94919660606912   13.15648521777224    0.98330473130233
H        -3.76786772490767   14.12650074817354    0.54700839382344
C        -3.60721023437297   12.92600933282042    2.30633718689533
H        -3.17664824044526   13.72211495904255    2.89520518482109
C        -3.82052487699518   11.68171981419674    2.87711009934624
H        -3.59761952719804   11.51705206958982    3.93470845925502
C        -3.74023558482024    6.63797876605205    4.71004722871887
H        -3.79557549397079    5.65212445531911    4.24122807283139
H        -2.68599771105635    6.90120938222770    4.89226606318445
C        -4.51565033004420    6.65598612509813    6.03221703666279
H        -5.45997393148964    6.12161775420408    5.91233854873888
H        -4.73666197363578    7.69247922131611    6.30293007643085
C        -3.70005895546293    6.07412911842619    7.16692282665943
H        -2.77263800074156    6.62830997701559    7.31007587217551
H        -4.26726387098702    6.05975478683616    8.09552347913218

