56
CSD_code = CIKGUY | q = 0 | S = 0 | Stoichiometry = C18H26N6OS4Zn | MND = 5
S         1.51854404755336    3.34081215517346    2.33096392313622
C         1.55511627087344    2.20778867733663    1.05125000330178
N         0.64891436041995    1.98182396116843    0.14163241911354
N        -0.51813263338269    2.59497886332926    0.31883783498263
C        -1.43686902056565    2.64702065186781   -0.59116164326416
C        -1.29390131474394    2.04406970264262   -1.95121100691659
C        -2.64088884532420    3.35229679332580   -0.20914490967632
C        -3.82779325847145    3.39334139051201   -1.11664791885372
N        -2.60212951670153    3.93969515292716    0.94600674706589
N        -3.63429322857681    4.64086427920294    1.42102569382518
C        -3.50078621864723    5.11739363139974    2.62754553207724
S        -2.23532215584629    4.87508666281807    3.74744468998462
S         3.02436245800582    1.28656960949453    0.93110788374270
C         2.67646650849724    0.23392407787199   -0.50894128355482
S        -4.81427013782613    6.10035283118215    3.21160295860063
C        -5.92068687760381    6.12772913609044    1.76969698116704
N        -1.47218641278961    1.67861563444724    3.18549747433173
C        -2.73869387642160    1.28130200524457    3.15377736487317
C        -3.26203931284328    0.34357431609549    4.03182664280773
C        -2.40166341597209   -0.24072980285203    4.95673403355490
C        -1.07627515025800    0.15705543165010    4.97401968927449
C        -0.65804624934293    1.12788119558373    4.07876697929597
C        -4.69079013237300   -0.11199106348383    3.89828369294626
N        -5.58889147850616    0.50790530611862    4.68592151846146
C        -6.97955125107016    0.09466731751501    4.61185615734528
C        -7.32987524468597   -0.89620020468121    5.71757483217357
C        -5.26797174802322    1.62594417052194    5.55050244164394
C        -5.43563458208691    2.96580928546838    4.83883810524928
O        -4.97352347795749   -1.00217013196674    3.11745830765945
Zn       -0.91617866509467    3.53645494825967    2.14138314698389
H        -2.09216152630566    1.32744119058023   -2.13622231651341
H        -1.34423184243236    2.81525541012557   -2.71852066294636
H        -0.33392785211731    1.53877414118193   -2.01472757893740
H        -3.55523736316038    3.81985959500573   -2.08027431654786
H        -4.21095377182462    2.38814893995423   -1.28706060646570
H        -4.60404669284530    4.00178142590243   -0.66022902362180
H         1.78699479207855   -0.35505370969874   -0.31378361524951
H         2.53228531679551    0.86417244094196   -1.37968085995083
H         3.54321358101540   -0.40559992170385   -0.63648824736039
H        -5.39182768796205    6.55433738244775    0.92460610564239
H        -6.23926680764362    5.11511842694226    1.54755291311770
H        -6.76754995748840    6.74645216257193    2.04614265339889
H        -3.36304272079917    1.73084452028498    2.39364355049804
H        -2.76869142959985   -0.98989705422676    5.64308622617411
H        -0.37529573947315   -0.27142840115016    5.67242186048100
H         0.36485978728009    1.47821621473400    4.07065249364094
H        -7.61280714067203    0.98219732724077    4.67867535054711
H        -7.12657068446000   -0.37883614482781    3.63844207347517
H        -6.71785014400607   -1.78919169165139    5.62095171727698
H        -7.16146290896686   -0.46101844768052    6.70041971664532
H        -8.37534270845947   -1.18111769595275    5.63974775051746
H        -5.93138785564972    1.58101659831428    6.41787085287647
H        -4.23948675768671    1.52933108775621    5.90538433236782
H        -4.75489869389230    3.03232550581964    3.99444102093266
H        -6.45297026416973    3.08980019658202    4.47502747669701
H        -5.20845236780637    3.78160451627642    5.51897284206137

