65
CSD_code = CIKGUB | q = 0 | S = 0 | Stoichiometry = C32H28NNiPS2 | MND = 4
Ni        5.74630538245186    8.62074029056870    7.75499599567673
S         6.98222158645920    6.86838765344884    7.25909961122990
S         4.77630477498265   10.58203109831333    8.23700078102168
P         4.80545564312084    7.76636002419501    9.46396363389655
N         6.69927394707596    9.62433982028374    6.30817865163323
H         6.15444111908564   10.28771140631916    5.74793874277714
C         7.84452973921026    7.54364875400378    5.89502004721770
C         8.75147938370816    6.77489929744127    5.17036885475721
H         8.95540223922740    5.76765723697206    5.50100348236415
C         9.35709739211637    7.28170328218475    4.03400064329336
C         9.04864799779652    8.57487819258507    3.61568180091428
H         9.50672026475139    8.96982640267885    2.72105706492553
C         8.16912586161652    9.35838609420565    4.33936028592507
H         7.94010488520653   10.36589929627414    4.01845707188272
C         7.57871463573114    8.85112036000302    5.48502421443276
C         7.34992745070986   10.36308584765086    7.38324413338782
C         8.71403736666563   10.55692722266514    7.46810071594621
H         9.37142501632383   10.11682570255039    6.73225609162091
C         9.24199247051151   11.29590218588418    8.52179727811651
H        10.31265210092779   11.42160034322749    8.58638952630922
C         8.42031551505601   11.87331311614589    9.47557237407666
C         7.04385787530301   11.68466351122692    9.38345726288567
H         6.38434739038530   12.10842445961908   10.12604016550400
C         6.50336256939140   10.92869202018862    8.35983553866102
C        10.31935142171188    6.44992435610037    3.24077345830262
H        10.50966176931381    5.50026387453854    3.73365406206911
H        11.26474265158491    6.97646258520855    3.11675534134517
H         9.91667187934477    6.25118328159742    2.24788638905881
C         8.98159934120896   12.68068628015025   10.60620838801884
H         8.66470808313897   13.71971876859769   10.52042242195457
H        10.06821725688846   12.64966981484510   10.60578466451734
H         8.61757301800162   12.29972662791367   11.55949327308389
C         3.09079435801105    8.18377478498371    9.91623206882069
C         2.80966590027753    9.40843148495453   10.51752560499863
H         3.61321571610140   10.09754216376386   10.73031583743083
C         1.50594020463295    9.74517203858504   10.82883989757158
H         1.29578952086317   10.69609417526989   11.29569287337481
C         0.47129685855891    8.87104220362416   10.53722970637072
H        -0.54707791863285    9.13820152515272   10.77796284913911
C         0.74508443767780    7.65661510954938    9.93122517987169
H        -0.05927943766340    6.97450259794759    9.69765633398172
C         2.04810095011505    7.31282242095017    9.61781062933441
H         2.25612891898761    6.36522804128691    9.14208164784081
C         4.79277844786078    5.94781876539066    9.59331700965908
C         4.45698683845937    5.23200576919973    8.44750285897203
H         4.25718951476318    5.77414914777506    7.53077059437387
C         4.40412388796344    3.85170583880971    8.48095919067626
H         4.14693140638168    3.29864030891606    7.58973135078587
C         4.69234583927991    3.17977129222352    9.65808032486614
H         4.65823736192098    2.10056266822494    9.68567275560774
C         5.03402897007905    3.88944506217198   10.79731355027318
H         5.26548858192172    3.36317220375947   11.71194894004155
C         5.08587261553345    5.27222346067706   10.77000885510656
H         5.36104809106603    5.82330253778702   11.65767882229948
C         5.80157982646096    8.31072051504870   10.88725839657805
C         5.30161586205061    8.42609029731315   12.18055424109172
H         4.26830816981036    8.18353006892961   12.38578574591926
C         6.13102333607728    8.85833689783776   13.20001416118509
H         5.74131318362804    8.95162590147064   14.20335918165580
C         7.45478790360303    9.17655035808982   12.93927988892132
H         8.09193479651432    9.52361093006567   13.73953287483048
C         7.96039043041130    9.04844261409962   11.65596592277918
H         8.99203949050612    9.29061294039328   11.44910682306960
C         7.13646046447163    8.61403740485425   10.63497170458066
H         7.52268744316712    8.49865926337668    9.62429221108619

