61
CSD_code = CIKLIS | q = 0 | S = 0 | Stoichiometry = C30H22N2O5SZn | MND = 5
Zn        5.05491696812690    3.92999960727852    4.28820496385028
S         3.08262892742057    6.09254799222437    5.09310192317334
N         6.73617891445983    4.17534941965724    3.23384392513805
O         4.00673563822532    5.08890629297782    2.99045205563137
O         7.10360243387812    7.44711842263113    0.30102354111870
O         4.20662064657504    5.22579878940478    5.55736820207235
C         8.24419259213647    5.16334222685092    1.65849166795999
C         9.25072018322963    4.31846929119542    2.04952410120259
C         8.98691723889372    3.38075594101193    3.04660424907227
C         7.72900210665009    3.35630591581798    3.60105532432066
C         6.96852148731305    5.08318204450108    2.25558468921144
C         5.92492647468548    5.96488248979993    1.82211180047410
C         4.58459825615279    5.91658937524518    2.22991237793566
C         3.85746555738268    7.03153058869211    1.57686120473283
C         4.76021003466133    7.72396163386772    0.76610419937649
C         6.10286767583563    7.07504439733013    0.88634759359352
C         4.36039304120127    8.81211124388234    0.02464560591663
C         3.02528977804767    9.20510510948847    0.10713441972389
C         2.13140369388492    8.52068689912687    0.91111053384291
C         2.53759937641307    7.41839712283876    1.66030402114533
C         1.64720815889943    4.97799310283587    4.88623910458773
C         2.49850996897744    6.79555806069689    6.69165858370683
N         3.79461150603543    2.40884783624472    4.03118348739422
O         5.80478691710985    3.09270199543890    5.88695593713232
O         1.80444234700968    1.48650859014578    7.82849222206667
C         1.96024491810196    1.14576952419026    4.91441360724968
C         1.51679068991926    0.86817268916385    3.64801522647629
C         2.23952021980892    1.35440718804236    2.55610625036769
C         3.35495121767411    2.11882617577054    2.80394750894345
C         3.12953571076477    1.91512712337055    5.10238650332653
C         3.64271527657413    2.16488715797098    6.40993115016417
C         4.91522429844058    2.70920344131979    6.68782247586676
C         5.07633894456623    2.74287920567617    8.16214916164632
C         3.89916503048290    2.26178603895205    8.74461840304269
C         2.94400586270186    1.88992404032514    7.65517857604439
C         3.75939279202895    2.19642106626660   10.11243338407206
C         4.82828232880808    2.61928607467657   10.90119449792727
C         5.99204721234906    3.09685164341193   10.32483554022466
C         6.13129777227306    3.16719090180935    8.94012526626528
H         8.40483790714148    5.90539549328031    0.89419433471928
H        10.22730919220241    4.37780906286069    1.59223695060313
H         9.74291140267275    2.69094222300121    3.38501543579568
H         7.48910811372984    2.65695810650260    4.38721898430648
H         5.06375577236749    9.34050823128035   -0.60059298393232
H         2.68449249463412   10.05574733384604   -0.46471994974684
H         1.10160109355290    8.84404114524505    0.95759364026535
H         1.84133854520849    6.87885149519932    2.28466236348397
H         1.77067692762460    4.45510243748277    3.94407905142974
H         1.62357131054717    4.26911086528977    5.70747446867564
H         0.74257853899186    5.57569492954694    4.86512562530200
H         3.28447185900561    7.43989591503017    7.07066710766868
H         1.59792397512736    7.37468995166610    6.52428423624267
H         2.31839918653895    5.99081087970900    7.39511996485558
H         1.43510190486976    0.79118025841321    5.78608448627186
H         0.62555783482183    0.27766912145729    3.49428052362989
H         1.93415057204995    1.14582615836697    1.54358067276640
H         3.93505637330306    2.53302722804221    1.99095906076894
H         2.84723857551881    1.82619133247008   10.55548220063885
H         4.74544802515820    2.57447824136578   11.97750334586198
H         6.80570320430462    3.42033639735101   10.95780555937847
H         7.03470499275806    3.54250653268009    8.48447163506678

