61
CSD_code = CIKTIC | q = 0 | S = 0 | Stoichiometry = C28H27BrN4Pd | MND = 4
Br       -0.32733637098866    4.03875133191446    3.79336012667944
C        -1.19031036408056    5.58280938882648    7.76707189489529
C        -0.34962907023739    6.52948340717331    8.34181149642645
C        -0.77444062238920    7.28792800164439    9.41757878353781
H        -0.13670927684361    8.02639925564990    9.88168944461748
C        -2.07652273725885    7.10066358015451    9.87655227647354
H        -2.42896913728332    7.70466233544317   10.69957082873191
C        -2.93821530653228    6.18194498284348    9.30012548298980
H        -3.95098075717473    6.09500890870306    9.66593918895805
C        -2.48605609436889    5.39435879920215    8.23975347648808
C        -3.16633733287560    4.36678987214517    7.45672553803571
C        -4.61918430466142    2.81944433040288    6.61598518579371
H        -5.48075157056447    3.21681784345849    6.06643538407855
H        -4.85497068376223    1.80786150101205    6.95290776981769
C        -3.33730514211598    2.89390785289981    5.76109559357455
H        -3.57047317707734    3.06411525705220    4.70521976684508
C        -2.42433675067593    1.63740142195332    5.86889558880057
H        -3.05316783493159    0.74592969116010    5.90249157735616
H        -1.80091730218502    1.59190414060084    4.97426852896952
C        -1.54490801166444    1.73868726864588    7.08750456946573
C        -2.04574788654154    1.50053012479113    8.36081368594066
H        -3.05186921424614    1.12388526724958    8.48424203905120
C        -1.26932339830056    1.73291894599716    9.48399071449923
H        -1.67645129579862    1.53528377621619   10.46531990798807
C         0.01995252173238    2.21867888093826    9.35147106037915
H         0.61744746047790    2.41570621524022   10.22973432890606
C         0.55047034479002    2.42272290420115    8.08779630003731
H         1.57944246499304    2.74160357840186    7.97608969267550
C        -0.22400484956447    2.18374004511007    6.95622901395651
H         0.23972900396512    2.22244144629064    5.97014416405686
C        -4.93626522674623    3.51916014487719    8.98356516849244
C        -6.30536953494091    3.26942997781185    9.02538405603394
H        -6.87407314168745    3.23358080779544    8.10865714483093
C        -6.94236406900868    3.07726705340959   10.23707970002790
H        -8.00629856265934    2.88920038902943   10.24922423704227
C        -6.23934332304410    3.12403167572533   11.43282508694069
C        -4.86877785373019    3.35729711817736   11.38060146187622
H        -4.29929961194159    3.38035007645287   12.29874392502742
C        -4.21815817431942    3.54345574407147   10.17836110258706
H        -3.15028122411866    3.69556900467189   10.15708592393545
C        -6.92384966216697    2.92442165817974   12.75016331522798
H        -6.85316484144110    3.82879522619686   13.35392736519045
H        -6.45083458219534    2.11669248854716   13.30705257445751
H        -7.97445685969711    2.68333271646846   12.61090524653063
C         0.99440279833555    5.81185506726774    6.53194027343359
C         2.02287222940196    7.29283483928969    7.86456713474754
H         2.15122580301048    7.96611195497181    8.68690542331033
C         2.87524234452340    6.94945853580762    6.86770816760974
H         3.87686267722744    7.27232460216571    6.66994169065589
C         2.78408520606586    5.49192162803482    4.85014697274106
H         2.30665602881658    4.52541466013395    4.66389519276458
H         3.85830864041161    5.34555495582823    4.99017806186433
C         2.51012456226149    6.42142077853624    3.67305946123585
H         2.91886349044318    5.99066267773455    2.76464080389883
H         2.95374398839407    7.40169153089379    3.83650527757329
H         1.43593633317119    6.53250846986241    3.54201938905893
N        -2.64150790096337    4.04352961996554    6.30819427718166
N        -4.30278790921587    3.67895301431314    7.75053011612797
N         0.87274891290333    6.58904502641011    7.64928184354275
N         2.23318134779647    6.04000938358727    6.06807609800003
Pd       -0.65234518873191    4.75323881845157    6.09832009801971

