57
CSD_code = CIKTAU | q = 0 | S = 0 | Stoichiometry = C24H27BrN4Pd | MND = 4
Br        5.23651860846469    6.85432938879393   23.81408117472775
C         5.08542546994690   10.91111329799342   25.35718104776152
C         3.95225797551231   11.30951265288402   26.06127871491599
C         3.76845636981390   12.66444510470347   26.34130746028791
H         2.88157348899072   13.01191231763750   26.85059447241764
C         4.73530067890923   13.57465002708988   25.94678137109409
H         4.59131586283814   14.62182952718045   26.16778816446339
C         5.88514723771453   13.18482950653818   25.26410481002560
H         6.61625320698260   13.92263082944599   24.96688808696416
C         6.04021212784427   11.84355431302549   24.96399357518440
C         3.10944705929145   10.15662411864493   26.36815380768560
C         1.52375358069027    8.73883356640485   27.20465931280091
H         0.49974302571608    8.76934668073436   26.81915028392233
H         1.50620494409550    8.30024651826695   28.20429924111110
C         2.46791225117505    7.99681870440705   26.22894643157021
H         1.89753094993555    7.56456649109470   25.39773939590928
C         3.32150444430049    6.86398795634625   26.85280049064347
H         3.76386669536335    6.31644024773327   26.01534522730474
C         4.46772090153608    7.42284538480340   27.69767617826699
H         5.18352681310582    7.97376469614387   27.05754521115130
H         5.00816300766476    6.60665575561222   28.17089085102948
H         4.10297587443705    8.09431763705003   28.47512867817693
C         2.46768233250519    5.87872168910211   27.64525422301498
H         2.13280359026425    6.29931268954705   28.59154542767770
H         3.05158319344387    4.98867752244388   27.86547441207076
H         1.59535831648251    5.57939692490461   27.06881643930190
C         1.82986562349089   10.92665003267865   28.34371620195423
C         0.51612419226847   11.12265132237882   28.76322266654516
H        -0.29250319658743   10.64010367178389   28.23561711979608
C         0.24715248090143   11.94120003633345   29.84150544017999
H        -0.77669950277176   12.09023975296168   30.15292354618269
C         1.27101076997544   12.58176813406965   30.53128827101313
C         2.57899905263500   12.36430682935340   30.11892251132836
H         3.39278485321544   12.83650497546459   30.65016909858767
C         2.86323707607786   11.53953393050843   29.04722693473098
H         3.88802596980282   11.36643434313495   28.75438695278671
C         0.95731127237004   13.46818747812692   31.69727219404344
H         0.51724900627147   12.88632133937398   32.50677946266093
H         0.23791953373749   14.23405030767585   31.41098341043880
H         1.85510887421524   13.95426879785028   32.07003106563826
C         6.95187148152477    9.87640643997964   24.01295569888369
C         8.21942893074720   11.69681713788190   23.67849678981915
H         8.51640738928469   12.72353072984006   23.73771583662914
C         8.82405503316513   10.63806267676991   23.08531969942018
H         9.74179649300199   10.58253029313037   22.53647013826725
C         8.30326099779383    8.23311096091772   22.73665044915934
H         7.89130513571727    7.47331268683187   23.40635627720994
H         9.38533851176397    8.10107714713912   22.66003451831784
C         7.64084588848572    8.11150309270568   21.36829761679937
H         8.03013040868685    8.85709361789908   20.67746330822605
H         6.56611847696022    8.24995245981394   21.47402110994008
H         7.81690762504775    7.12052490393824   20.96270605661695
N         3.32990704308626    9.04899795718451   25.71696246495100
N         2.09061950971347   10.07931558508373   27.26242636269859
N         7.07192518466837   11.21912186667717   24.24179157728038
N         8.04056680853344    9.53579723903558   23.30293414090872
Pd        5.24389106919284    9.08026070494710   24.72622858949901

