45
CSD_code = CILBAB | q = 0 | S = 0 | Stoichiometry = C14H16N6NiO6S2 | MND = 6
Ni       12.78739844967509    0.00110673363174    9.37026459282938
S        15.90808048304923    1.37892651509424    8.12379055945356
O        16.63601898863850    0.17767162769299   10.37188870976726
O        12.12773056800915    0.34932570326592   11.53396138416258
H        11.91438407625171    1.27990477814026   11.64981202497613
H        11.29319292129058   -0.15527348896696   11.59862860234748
O        12.98998200076424    2.13790503731034    8.87722977552460
H        13.90973862161846    2.22775049248015    8.55660920783370
H        12.42405127435779    2.19376052644135    8.09338135796750
N        14.51903512884221   -0.11537234024060    9.89731026194241
N        14.77863496640612   -0.79052248056344   11.02308436477623
N        18.14933813902159   -2.18836854394076   14.58540830171965
C        15.65304790350546    0.47476255866450    9.49215054753246
C        16.03077180654588   -0.60800624658684   11.30211842971285
C        16.75945915406921   -1.14661116229504   12.42434243640037
C        18.12987156796212   -0.92455595650177   12.56301287742596
H        18.66930345803373   -0.34468969083764   11.83102713406726
C        18.76823870789670   -1.47071409329545   13.66414695005351
H        19.82959398222720   -1.32805639419223   13.81761842334543
C        16.84921591010456   -2.39425068418951   14.45184620945842
H        16.38861403758427   -2.98464229377666   15.23255513946274
C        16.10095535111275   -1.90091298985210   13.39760501680067
H        15.04116811567641   -2.07801436494043   13.31856835683954
S         9.66765866969252   -1.38081228615872   10.61458013103582
O         8.93916074734235   -0.17822545873825    8.36747360674808
O        13.44566598676007   -0.34946222177078    7.20646066153705
H        13.65714580702439   -1.28042054740024    7.09080564500297
H        14.28107402052387    0.15371474899656    7.14133014272461
O        12.58613774166093   -2.13676736849852    9.86136978332117
H        11.66613578659907   -2.22751643859763   10.18111492667197
H        13.15149236813605   -2.19264453736766   10.64569806893997
N        11.05550723648153    0.11745804737042    8.84329709513193
N        10.79541111830640    0.79330589947321    7.71800925647557
N         7.42311306545965    2.18682991987801    4.15495803140003
C         9.92219539810233   -0.47475841267389    9.24733023026115
C         9.54366878470427    0.60917501730391    7.43825153929495
C         8.81445143873769    1.14717164372656    6.31608121726672
C         7.44476889958388    0.92133782868298    6.17624937458253
H         6.90653045215714    0.33926399006036    6.90735977015998
C         6.80561452075119    1.46656471062853    5.07511983129951
H         5.74478557349817    1.32097921595344    4.92079151035080
C         8.72252152408362    2.39638884024013    4.28967892540270
H         9.18197197181104    2.98876256118557    3.50979476844552
C         9.47147766629952    1.90424956089854    5.34399830327803
H        10.53068560964133    2.08438204426353    5.42388651627035

