38
CSD_code = CILDAE | q = 0 | S = 0 | Stoichiometry = C11H22NiS4 | MND = 4
Ni        4.56203177788452    1.95265206880435    2.52086645431376
S         3.09332143016255    0.98314971469899    3.80321620332746
C         4.06436359924205    0.81629468458318    5.35620731791827
H         3.63713189255938    1.51110962105596    6.08137500712465
H         3.91847795201264   -0.20482586234494    5.71128396396370
C         5.55174445129210    1.09989663880405    5.16510064057450
S         5.54499128392981    2.79966053789990    4.40649347204705
C         7.32222419796595    3.17212460481700    4.14255517488261
H         7.67229252313449    3.64434916355681    5.06117858836327
H         7.85734690576780    2.23678039347102    3.98950351266151
C         7.54434682425905    4.11185601399898    2.96315613319962
H         6.86214819993903    4.96246389996784    3.03814826258425
H         8.56551391381836    4.49868695865725    3.03074252667373
C         7.37887761845338    3.43903820316016    1.60463589641459
H         7.80633488543652    2.43735619988666    1.61722473533354
H         7.86279659373120    4.03541846019768    0.83039480883435
S         5.60986865382832    3.33614042336510    1.14049119468428
C         5.58635615486898    2.41012547011237   -0.47504857465844
C         4.16857251416453    1.84829890545687   -0.51886613742693
H         4.01926753156205    1.24305563133225   -1.41423754662122
H         3.43489834979875    2.65675069851157   -0.51302690277588
S         3.81463033617152    0.74128542843479    0.89554821239230
C         6.27827391928515    1.13715799339377    6.50186999259584
H         6.18518388500078    0.17202332044236    6.99612784365636
H         5.84776653521628    1.89807062287576    7.14911173619258
H         7.33675721906339    1.35111745880576    6.36754129955955
C         6.17131391342534    0.09154582565324    4.20449224206418
H         5.96742723512240   -0.91853252828865    4.55454000432954
H         7.24987563800371    0.21227429569144    4.12415094772136
H         5.71028604998276    0.20070764532783    3.19771527977186
C         5.82495624873840    3.41294736960922   -1.59570973737401
H         6.81780513140691    3.85218857032363   -1.51613530742228
H         5.08801719899836    4.21240651731828   -1.55761916989178
H         5.74713676060024    2.91670137454649   -2.56102361363417
C         6.61041122536319    1.28809765002375   -0.49234331645216
H         6.47672667385706    0.64977990538743    0.38244493108525
H         7.62813821502534    1.67041534289851   -0.52385770330120
H         6.44928656089215    0.67623077757867   -1.37804837274690

