78
CSD_code = CILFOV | q = 0 | S = 0 | Stoichiometry = C32H38N4O2PdS | MND = 4
Pd        3.83772833427342    5.23619666931717    5.93454154362543
S         2.87663190027773    8.20801842134238    6.70078361839766
O         1.60919761694383    8.89544271356322    6.68462398274235
O         4.04690013115183    9.03879550957194    6.55872634303533
N         4.95145696183295    3.58231716236740    5.99677887119424
N         1.43550665461403    4.93221018458400    4.15467922859362
N         1.39642440164311    3.15647651239635    5.36887315028115
N         2.80339233429152    6.94621844726947    5.66461022935969
C         2.29735267377245    0.05041776350245    7.15173987159120
H         2.65097284717970   -0.94554836256013    6.93710826043679
C         1.36700722329719    2.61746924938475    7.74155749503483
C         1.56760353133966    1.68036214283248    8.74490245396726
H         1.35532280856420    1.93517738040989    9.76972990975922
C         2.10476746551302    0.95075775202486    6.11069282338304
C         0.14489982265120    5.61381517301922    1.80329658280309
H        -0.30399627915493    5.90416285648651    0.86550900342620
C         1.18830869398905    7.83788208277876    1.91042012511359
H         0.72288885325670    8.08138305204714    0.96749184908011
C         2.37672074661378    0.50460138632349    4.69153077105284
H         2.31252002774775    1.36828027282887    4.02295874025091
C         1.63968098549424    2.23245530977008    6.41883826701448
C         0.48705171026252    4.08482264753793    3.59561748050941
C         5.52790285195044    3.21761531191124    4.84235986959520
C         5.28831789514978    2.96765051402918    7.13207533504059
C         2.03125010548362    0.40965722660764    8.45591585233372
H         2.17837699694511   -0.30351436344268    9.25351880308878
C         2.01502454405926    4.35280865921545    5.23007370222060
C         6.24274241536522    1.95820347353354    7.15527977401312
H         6.49311369752299    1.48360516483120    8.09079252712240
C         1.91035571919338    8.78116087221700    2.61108819881121
H         2.03727636409942    9.77368343696529    2.20509693090051
C         1.01829695114306    6.55677372017850    2.44327323104376
C        -0.16287487436606    4.43615296583054    2.38239722665110
H        -0.86393651769801    3.73760749656845    1.95413435740595
C         0.45757636464194    2.96987210220235    4.38671556941287
H        -0.15057365738183    2.09258224999714    4.32380156524659
C         2.99332363662289    7.34176913455659    8.29569482237993
H         3.33997014951380    8.06325411625853    9.02467823469907
H         3.70137008827409    6.51943803932545    8.18852299168094
H         1.99673465638016    6.99756509740480    8.53716741622086
C         0.81919106526670    3.99652824096674    8.05037320532230
H         1.38421963150224    4.73317114899412    7.45606113345112
C         5.61995851774464    6.23905629152820    6.34811793767415
H         5.45886187536717    7.31892567754370    6.34512245857407
H         6.38660637134144    6.01564965758580    5.59096625711487
H         6.04761753501245    5.96299244879259    7.32274560721976
C         1.63502180853588    6.22264457578224    3.66487349582274
C         6.50090407907641    2.22905060808527    4.80520782798488
H         6.96156985760791    1.96345121072942    3.86668391302006
C         3.78056930415674   -0.08566262667747    4.54653078973057
H         4.52558039360063    0.59993005834593    4.94076063027207
H         3.99751781757009   -0.26723363629165    3.49607394159354
H         3.86860196261630   -1.03053792247479    5.07599228417077
C         2.45823007770929    8.47859724052230    3.84232449753600
H         2.99142583198152    9.22660940960633    4.40567645145936
C        -0.65664376335973    4.06709451778308    7.63852851709501
H        -0.79212787669630    3.84509055114199    6.58342233538140
H        -1.04607798867836    5.06470898237298    7.82597219953394
H        -1.24112434032415    3.35195859793048    8.21542120311839
C         0.94701544038684    4.39657785655457    9.51961667471459
H         0.29991179800842    3.79138548444168   10.15122369088140
H         0.63842109658912    5.43297509309369    9.63652760113190
H         1.97287184985549    4.30515150172378    9.86833883872810
C         5.06995821188611    3.90352126653345    3.59005878388944
H         4.08685576907498    3.51759026874468    3.30219280043557
H         5.76398347389006    3.72111221677777    2.77296533128126
H         4.97547581761726    4.99109087628611    3.75916512754382
C         2.34098155414862    7.20233739838564    4.41205135007280
C         6.87181777299549    1.59168105929078    5.97936163865590
H         7.63047524749033    0.82448337121129    5.97336239675568
C         1.33131854823347   -0.52664092103577    4.25399493458082
H         1.40260882425377   -1.42320740695861    4.86495814278915
H         1.49177136186035   -0.80419198810424    3.21463881277728
H         0.32245769930336   -0.13304504741013    4.35366636093571
C         4.61548203053334    3.41197543728868    8.39259987434641
H         3.81734449761670    4.12639363589894    8.14164633066939
H         5.33895214835849    3.89532816340997    9.04948169657585
H         4.19340786542630    2.55665715661754    8.91799791866065

