51
CSD_code = CILGAI | q = 0 | S = 0 | Stoichiometry = C23H23BrN2NiS | MND = 7
C        -5.37404431071986   14.05523498321862   13.01277141916630
C        -6.44295259624287   15.92355711612307   12.43140367682054
H        -7.27956747143919   16.53747955039686   12.16968932054420
C        -5.12778303260612   16.22065102991215   12.54666711434565
H        -4.60131716404519   17.14080713210952   12.40024495995275
C        -7.83085158283164   13.89177264636251   12.82749841331611
H        -7.63256056804114   12.81969259843055   12.70730821387655
H        -8.50609496577572   14.21950980356157   12.03279245153497
C        -8.46785629201724   14.14819337057979   14.19361555281080
H        -8.76214205521673   15.19332297927460   14.29153807985428
H        -7.78633770730673   13.89671512981305   15.00642794931578
C        -9.49718714920686   11.58460649729104   14.90926518286379
C        -8.18334712035697   11.18224338780130   15.08446704067722
H        -7.34651278534760   11.83758872195559   14.87216096263694
C        -7.91952171407084    9.90558990292448   15.55220075924540
H        -6.89391626146768    9.60915013733149   15.70973966424017
C        -8.94776679559624    9.02227763862823   15.82377939417267
H        -8.72968472987012    8.02937178923610   16.18723710473381
C       -10.26044840008847    9.42184457131441   15.62770999629590
H       -11.07306692407149    8.74096098132202   15.83332030869159
C       -10.53584908661583   10.69729452459868   15.17784985705507
H       -11.55472403361553   11.02455328031287   15.03391043379545
C        -3.07367665252989   14.95318658189416   13.14991199188768
H        -2.89927248128644   13.94989323426519   13.57825496149642
H        -2.77632457817313   15.69212541116762   13.90002785522075
C        -2.25451643718301   15.11517476664294   11.89511437522579
C        -0.95997696248671   15.61132294560974   11.97782079450566
H        -0.56090848730343   15.90007366139755   12.93934842859119
C        -0.18155337783223   15.73013290628771   10.84059338817609
H         0.82424284263720   16.11511677500173   10.91712055591047
C        -0.69062902099433   15.35813487635798    9.60771368048772
H        -0.08352802567203   15.45090547637182    8.71986614147939
C        -1.98083123142638   14.86524616720597    9.51808163654211
H        -2.38310977108977   14.57108421331714    8.55980613574575
C        -2.75872933056716   14.74254866413894   10.65597510620093
H        -3.76345815589089   14.35152151861283   10.57677523788554
C        -5.55895582574637   10.44201796316178   12.81116030144874
H        -6.54172381502230    9.99756190493337   12.82748650494304
C        -4.54401647123492   10.26943891765071   13.76810906422056
H        -4.59266805077262    9.62479337345466   14.63434554967308
C        -3.32028211025542   10.83355545008010   13.25537736451364
H        -2.34874077418894   10.71842967362304   13.70928389829306
C        -3.61550435585615   11.46177586957028   12.06511419702772
H        -2.92018699655868   11.92458731879552   11.38240646818491
C        -5.03249974188426   11.28801336989307   11.81844901946894
H        -5.52301356435595   11.55461643236593   10.89230428536854
N        -6.57655190967583   14.59148391657975   12.71746068779240
N        -4.49094798069102   15.06802299071645   12.91172782245618
S       -10.00696704288722   13.19859342066593   14.37277292082289
Ni       -4.92336294492064   12.30790700325982   13.59586963442701
Br       -4.80357399959964   12.93651742447692   15.74822413605792

