36
CSD_code = CILGAF | q = 0 | S = 0 | Stoichiometry = C14H20SiTi | MND = 12
Ti       -1.30026230775569    2.90925522602823    3.14992423843798
Si        0.97877046408268    2.90925633379025    1.40089604308617
C         0.81284675848489    2.90925462727677    3.29717928223030
C        -0.89607545517503    2.90925569850451    1.07123979834269
C         1.89309458066878    1.37568157357583    0.69699721039961
C        -1.06806485073878    0.91418357338240    4.41040729391154
C        -2.31310121084695    1.42872495676956    4.81105738497126
C        -3.16753686346251    1.42812683485517    3.69557910646781
C        -2.45627083773941    0.91319646317324    2.59832544264592
C        -1.15505426382680    0.58579576803132    3.03944498260404
H         1.26263410222878    2.02708093900115    3.75797573628441
H        -1.22461659104216    2.02703592241038    0.51754549777476
H         1.82954505477319    1.34856374241637   -0.38566427038845
H         2.94438784787700    1.39413986560092    0.96393327792945
H         1.47348172385185    0.44940444995808    1.07506695582368
H        -0.24894275209100    0.66577572381405    5.07431039206972
H        -2.59879053584621    1.65897932476938    5.82855837980985
H        -4.22447999793302    1.65772760063207    3.70620257020578
H        -2.88384020393607    0.66333950924756    1.63486867746809
H        -0.40386974461798    0.06163398558072    2.46379800450481
C        -1.06806483764811    4.90432669366676    4.41040799801854
C        -2.31310033659678    4.38978698882279    4.81106239020643
C        -3.16753918827840    4.39038391669455    3.69558668082013
C        -2.45627588463169    4.90531109528546    2.59832982234011
C        -1.15505762152691    5.23271180007809    3.03944512644801
H         1.26263422005422    3.79142749852828    3.75797708984374
C         1.89309262384718    4.44283301639786    0.69699898273929
H        -1.22461730642744    3.79147591513699    0.51754656067410
H        -0.24894080655580    5.15273528333967    5.07430840957395
H        -2.59878673285469    4.15953377829807    5.82856449942681
H        -4.22448241762960    4.16078419264802    3.70621392306189
H        -2.88384767001555    5.15516643935904    1.63487371174841
H        -0.40387449456988    5.75687248669961    2.46379531448767
H         1.82954766933378    4.46994937477927   -0.38566241942318
H         2.94438407168953    4.42437957264858    0.96394074460467
H         1.47347379485450    5.36910982879895    1.07506516084996

