69
CSD_code = CILHUB | q = 0 | S = 0 | Stoichiometry = C24H34B10Ru | MND = 12
Ru       10.67309400323148   30.89835284572494    3.49047323206229
C         9.10147321656112   29.28983606607191    3.24150328183605
B         9.25057341715173   29.86909086249391    1.79054975367861
H         8.28988111640765   30.39584794133775    1.34755953280979
B        10.29029182021286   28.70983401427286    4.05135496511506
H        10.09817062668866   28.41239458307439    5.18012467486702
B         9.56208187278961   27.98840601025831    2.07576895910284
H         8.65246925060499   27.24522302682949    2.02197123421435
B        10.91326419866338   30.41394664821486    1.28482215152552
H        10.94828990897206   31.44032462024223    0.69755476256723
B        11.94453179225461   28.99678350979699    3.54307599066848
H        12.68709962177358   29.04918152200648    4.46220990270418
B        11.15448662431417   27.50733643375338    2.98342847426709
H        11.26544159382643   26.48237887309717    3.55369456614657
B        10.15545760922254   28.94766783687780    0.60457199075057
H         9.64137246618700   28.92837867603259   -0.45484772452971
C        12.27278414479757   29.91482267762585    2.14495845400787
B        11.06172581609393   27.56755842355613    1.24790993591550
H        11.10082620892055   26.56821152923767    0.62835929474186
B        11.89207088955396   29.05946595805754    0.69368936593635
H        12.59645766103248   29.21396050187104   -0.23436877236155
B        12.50907113239715   28.20524824779373    2.09256915297730
H        13.61029375497655   27.79524526818380    2.06701912882591
C         7.76410726025572   29.29394972631776    3.87647278829298
C         6.88773066298411   30.37558053994142    3.78627871383626
H         7.17359437979267   31.24227704452782    3.21037032083061
C         5.65289376192179   30.35625609451383    4.40736245967391
H         4.99805041539249   31.21300563181602    4.32621584655245
C         5.24771912863304   29.24281567425908    5.12289816482456
H         4.28220333734652   29.22613931148698    5.60681973143922
C         6.09101663404562   28.14679883232308    5.20012399645756
H         5.78013501665534   27.26567002961611    5.74325776210753
C         7.33037560654026   28.17337829074171    4.59001868494226
H         7.97508340057910   27.31009205682359    4.65252924226953
C        10.45420392289077   33.19255299014792    3.30609140015182
C        11.77108597821675   32.82835359318620    3.67126378666262
H        12.61005606181137   33.24474269468423    3.12192938690588
C        12.02506602885652   32.04380282132481    4.82372050774741
H        13.05208313271987   31.87454640814565    5.13006449962661
C        10.96664101347953   31.58399366803097    5.63746212048768
C         9.64931749627872   31.86248241423468    5.21555341370115
H         8.81227916516054   31.54256413319256    5.82894118423084
C         9.39707342788637   32.67377033472638    4.07851973038640
H         8.37902401660016   32.97785674622600    3.87343578371403
C        11.23998574631584   30.87275334920178    6.92787785733360
H        11.47925660784373   31.59986868985822    7.70651757903055
H        12.08590241325349   30.19578381390750    6.82655686218962
H        10.37237592879994   30.30056272677675    7.24806999595673
C        10.23484511128065   34.18933381227295    2.19285395453345
H        11.07802280207351   34.10752416969413    1.49687506112228
C         8.94414892969686   33.95433186982751    1.40883696583447
H         8.87838048381255   32.91883000390015    1.08320982848738
H         8.92843337996057   34.59490456015907    0.53031859093379
H         8.06946162216530   34.19337373314416    2.00953645093681
C        10.24738276025856   35.59932524760263    2.79741490780491
H         9.43302748636476   35.71266728524668    3.51078030709144
H        10.12652813402741   36.34425374034572    2.01473004467717
H        11.18602887869832   35.78937786075503    3.31418607210619
C        13.51270430339752   30.74352406554924    2.09473705443919
C        13.71511892170220   31.69708110010787    1.09089942239561
H        12.96681991416696   31.83592148401698    0.32804686942250
C        14.86087531647907   32.46874138366399    1.03957883348120
H        14.97588942228057   33.19902380603983    0.25091956772769
C        15.86018105885226   32.30814971035263    1.98357293357748
H        16.75389342046451   32.91329608618012    1.94704505079041
C        15.70197947125989   31.34316550127965    2.96244999957395
H        16.48217517406696   31.18306555551648    3.69337505668621
C        14.55532534210673   30.57222936651313    3.01080535365329
H        14.47950877598784   29.81388596540962    3.77252354754267

