113
CSD_code = CILJIR | q = 0 | S = 0 | Stoichiometry = C47H60AgBN4 | MND = 2
Ag        4.82569908580080    2.59591138424505    3.89865316443791
B         3.08768459408254    3.44698191582366    2.68944330086640
N         3.02811825915205    4.17149944853757    1.43507770234020
C         1.73687981807337    4.56724642744689    1.14337603683417
H         1.50187385847236    5.11838891112285    0.25202818019932
C         0.92486402222016    4.14565544093571    2.12812299316932
H        -0.13629486357661    4.26929387648220    2.24060443357725
N         1.68589506242182    3.47788705568449    3.06606348165056
C         4.03973956416255    4.50218792733064    0.50718365441540
C         4.33677720847113    3.61437052824413   -0.53384384253847
C         5.28169937451771    3.98302182211715   -1.48058378812509
H         5.52433740071584    3.31163584944349   -2.29043281739685
C         5.91391274717500    5.20949171958933   -1.40659586275208
H         6.63312715909756    5.49043175205611   -2.16402485214529
C         5.62499416190164    6.07618255793555   -0.36984586714297
H         6.13441961189550    7.02569058329852   -0.31613915171887
C         4.68460779221016    5.74157974712983    0.59329212705259
C         3.65541388994031    2.26743605540827   -0.59464407896390
H         2.74627333210206    2.32347984988767    0.00887398711160
C         4.56768970760499    1.21511782427846    0.04057055174889
H         5.51997705588520    1.16830822491726   -0.48340088120691
H         4.09760797630213    0.23513706413322    0.00236719832633
H         4.74608133024055    1.48342644625181    1.08845530945588
C         3.26212602292936    1.86191941442388   -2.01541985272074
H         2.71408573344232    2.66470509342027   -2.50325849673301
H         2.62590113290549    0.97988732716910   -1.98482837886135
H         4.13535611195064    1.62286632810063   -2.61750896906951
C         4.37384129299597    6.67639302431854    1.73713736063721
H         3.40579871514282    6.38839235518867    2.15439555766087
C         5.42675894999745    6.49100171692979    2.83200916656200
H         5.40198673724298    5.45348561682189    3.18221539488227
H         5.21949413011338    7.15391466501814    3.66881828625430
H         6.41997371186634    6.71034215447647    2.44725177165395
C         4.29334864464039    8.14066354842411    1.30406337570153
H         5.27446735304183    8.53106462485301    1.04527540897286
H         3.89738185942488    8.74419488651531    2.11800982181398
H         3.63720451524504    8.25062006122866    0.44361722800320
C         1.05237769929064    2.91454771231364    4.19310976163080
C         0.95256634330211    3.65540089898936    5.37651154719959
C         0.35969170672028    3.06940092851662    6.48610917335482
H         0.29366343318133    3.61659139834061    7.41463394772631
C        -0.15951378439587    1.79079235490623    6.41803279139448
H        -0.62105413384520    1.34673162344052    7.28920650844557
C        -0.09672816349657    1.08124065425376    5.23215180221440
H        -0.52236821645856    0.08949448478340    5.18788702847469
C         0.50264988594067    1.62929645654579    4.10690282271424
C         1.48874154979287    5.06678677659038    5.43406693054427
H         1.63470886418519    5.41228150585778    4.40717863079776
C         0.52190387636645    6.02655434797586    6.12971299321162
H        -0.47508849992674    5.93844127000403    5.70397174834905
H         0.86259818957107    7.05163401262145    6.00000741693229
H         0.45993740626558    5.82649292217809    7.19677232626511
C         2.85478374102443    5.07525906525047    6.12034545833836
H         2.78063939403240    4.66808409521033    7.12661205374577
H         3.24409250328553    6.08909895409033    6.17986366790760
H         3.54931139866213    4.46549583656921    5.53132405519185
C         0.59118557773024    0.85348061469108    2.81308439784864
H         0.79268007584311    1.56454097935252    2.00781172512246
C         1.77045150575637   -0.11878994545153    2.87930585252915
H         2.69122491855145    0.44477246994439    3.04588007274507
H         1.85969104901431   -0.66910862959320    1.94504001389482
H         1.63452676385047   -0.82922707803920    3.69197106704168
C        -0.70536353478467    0.11430657832423    2.47959600458819
H        -0.87413354449073   -0.72079415898487    3.15549581761528
H        -0.65473759035151   -0.28062334733609    1.46694163379574
H        -1.55675403163888    0.78827058747307    2.54366604728013
C         7.15707915937720    3.22337563717256    4.04714839233408
N         7.35131790247751    2.17179804287042    4.86360829552608
C         8.67874119579217    1.92717353988574    5.08086560966184
H         9.02992761222449    1.12896959826937    5.70430908128422
C         9.34948055701308    2.86713203897667    4.37263613071723
H        10.40093606638090    3.03098148298656    4.25142660711120
N         8.40510546358688    3.64385698648980    3.74715490347017
C         6.23035160677557    1.46033941104899    5.33997154133549
C         5.83954441796409    0.28712207948641    4.69877731074211
C         4.70601018508111   -0.36907557452888    5.15775443986867
H         4.40544248588006   -1.28858209888108    4.67559062941103
C         3.95512228627024    0.13242880866295    6.21005495547473
C         4.35111676895165    1.32311859065387    6.80690515525708
H         3.76426525880103    1.72917079716965    7.61837572325083
C         5.48943250730800    1.99533575205201    6.39383629614184
C         6.65363391967560   -0.26253430425274    3.56688934131246
H         6.89171890219123    0.51220432908995    2.83753330813311
H         6.11098978385229   -1.05500178644886    3.05713653142773
H         7.59560832465233   -0.67321561588369    3.93713693754430
C         2.72782448801589   -0.57426208505433    6.68965800906637
H         2.70937904091744   -0.61638570972752    7.77783066483039
H         2.68317686371654   -1.58790007282340    6.29740877815454
H         1.84177090453741   -0.03133206858292    6.35957498156353
C         5.95864747393764    3.24410994552462    7.07594624611465
H         6.94486097428220    3.08572902852094    7.51799062755706
H         5.26728890493241    3.53153770549240    7.86387999612132
H         6.03857710642825    4.07184357997632    6.37086472729098
C         8.70535719194145    4.72336932844014    2.88259101772221
C         9.26377927434683    5.88974993511593    3.40552582634278
C         9.56857820531230    6.92425009470162    2.53536569360131
H         9.99668471326254    7.83506239063541    2.92958587709398
C         9.32992485803817    6.81726973547093    1.17182851317368
C         8.76503346817622    5.64959637392531    0.68253472412442
H         8.56816980391445    5.55423590846354   -0.37399722752119
C         8.43437555057951    4.59607554186393    1.52054418062195
C         9.50982976442259    6.03072385162952    4.87863219450513
H         9.66164225086533    7.07475871664763    5.13964601259381
H        10.39726552409029    5.47388942590813    5.18147852122612
H         8.66204378252701    5.64985432188645    5.44614402117292
C         9.68262425916164    7.94750459665805    0.25295774663527
H         9.22258776990992    7.81174325724782   -0.72234410853509
H        10.76320987068222    8.00000550677310    0.11813149041420
H         9.35329879769572    8.89769592853822    0.66931421748398
C         7.78953510757574    3.35820187163112    0.98360865960648
H         7.79567060853261    3.36364244508367   -0.10182351923622
H         6.74974857261965    3.31315150674693    1.32144884744085
H         8.30610302261786    2.46501462679341    1.33489013986051

