115
CSD_code = CILJEN | q = 0 | S = 0 | Stoichiometry = C47H62BCuN4 | MND = 2
Cu        3.91512532831702    0.41044575934627   12.21063257765681
B         5.75861939293298    1.44755300142534   12.44036133686278
N         7.09555585007258    0.96935163177427   12.22007698995937
C         8.13989797896873    1.94341938786882   12.47340905083986
H         8.74523764823157    2.12106816955815   11.57157209921749
H         8.82708271179756    1.59809946541203   13.25996243438228
C         7.37553882415713    3.20548253726582   12.90142426148924
H         7.66144632354387    3.53042631691719   13.91331635449672
H         7.57322766075034    4.04939538641803   12.22403823782416
N         5.98225825248657    2.80538062290848   12.85385427616661
C         7.44910258174330   -0.33693736640118   11.84128959407992
C         7.52729762575487   -0.67269911166928   10.48358088876966
C         7.81052267498596   -1.98294171085959   10.12678625248475
H         7.86414840120269   -2.25701447341582    9.08249993147460
C         8.02250899064109   -2.94904653169483   11.09192872435737
H         8.24902276053181   -3.96532273776098   10.79837388383377
C         7.94140256939048   -2.61527510631619   12.43040512963811
H         8.09972773006081   -3.37830447536257   13.17922373492772
C         7.65194057487974   -1.31697276701300   12.82152731070328
C         7.28272217541075    0.37826677760074    9.42518151549189
H         7.14992804989264    1.33825486589475    9.93009083566025
C         8.47094391152499    0.49020456905153    8.46844911618548
H         9.39061794017907    0.66300868754113    9.02395022496528
H         8.32242738460617    1.31931651614083    7.77894066613862
H         8.59161124103878   -0.41953051221614    7.88475691914809
C         5.98996152359140    0.08700767315348    8.66071282582019
H         6.02099266557543   -0.89684569928916    8.19693472902869
H         5.83709908094535    0.83199430359882    7.88207099896055
H         5.14432236176951    0.12823205250443    9.34457543447831
C         7.52738642383477   -0.96454894348287   14.28497865500855
H         7.29601899564212    0.10091139025356   14.35517737605312
C         6.36342510696985   -1.72460325587285   14.92108753365238
H         5.44363601674314   -1.50944065017886   14.38169037185307
H         6.23710362931345   -1.42175423097416   15.95880820383498
H         6.53454214611612   -2.79751512055718   14.89250378169928
C         8.83347567738077   -1.23410382642534   15.03431352943108
H         9.06854661935070   -2.29617987552682   15.03775357908463
H         8.75203038692783   -0.89937663998763   16.06690396398484
H         9.65982084883219   -0.70487649079990   14.56348684039960
C         4.98391765552334    3.74658957237361   13.15768534492003
C         4.48587932867442    3.83817782796705   14.46379020718825
C         3.45324750861144    4.72454780980673   14.73261965887128
H         3.05482841493127    4.79893618638886   15.73475689791940
C         2.92103725471315    5.51536876066204   13.73206900099665
H         2.12007411191506    6.20646456597791   13.95822507944382
C         3.41212333185466    5.42002130501954   12.44395268956691
H         2.98481475567507    6.03544544715601   11.66505885064423
C         4.43934366113468    4.53995455196512   12.13966404540515
C         5.05443306107591    2.96366233935734   15.55761665429255
H         5.89165648886117    2.40166637051805   15.13644933275800
C         4.01682576236194    1.94353865640271   16.02997593578392
H         3.11603380399016    2.43729111746743   16.38887381581083
H         4.42439705701052    1.33773114267811   16.83714989544502
H         3.75283898808778    1.28319603268146   15.20614194989438
C         5.56942041072307    3.80217093838290   16.72868921262410
H         6.27841034254243    4.54945875287530   16.37782994345631
H         6.06972095963424    3.16553119558883   17.45625409558388
H         4.75354618017978    4.31645317063952   17.23146242648536
C         4.95049763919593    4.41490347181735   10.72386693091962
H         5.74764200175458    3.66779740303987   10.71944061057723
C         5.51858493953811    5.74335215395602   10.22125303125223
H         4.74044274130389    6.50098120823237   10.15942451787080
H         5.95263917644784    5.61818620999464    9.23088073210433
H         6.29274148992083    6.10612605203693   10.89480405442974
C         3.84670404604527    3.90541611917618    9.79707607409474
H         3.46300412343320    2.95723554185459   10.16708190622085
H         4.23720756716372    3.75441267068249    8.79240566334727
H         3.02244242154073    4.61183955660056    9.74489116531035
C         2.22116927904069   -0.54275941148043   11.99880272563306
N         1.04661537166707   -0.04447751908495   11.54728127819903
C         0.08032569159720   -1.01600626088180   11.53629020844115
H        -0.92311880749437   -0.81808207591371   11.21962961069935
C         0.65920142319406   -2.14944020613693   11.99595505274301
H         0.26220935285663   -3.13380686167703   12.13654027053174
N         1.96643993924686   -1.84391359331437   12.27079849020499
C         0.83311310853863    1.29069681609350   11.10933444184463
C         0.74159133754537    2.32459440351181   12.04020703499222
C         0.49038597765299    3.60692836510055   11.57618042884802
H         0.42728022702361    4.41371603749728   12.29059266732642
C         0.32950399673305    3.87301371750588   10.22546474791974
C         0.44481725480110    2.82672574347848    9.31974473124355
H         0.34260520605876    3.02519484728837    8.26256603990678
C         0.70272588526214    1.53287353244380    9.74040300977407
C         0.94210070844285    2.07337454706612   13.50069362738576
H         2.01042806560376    1.99622685959216   13.70632312933795
H         0.46249728420988    1.14859706604342   13.81906507877246
H         0.54635164522893    2.89740634517402   14.08767520876478
C         0.02600834881510    5.26061673005605    9.74912720198406
H        -1.05098402911494    5.38787289385508    9.63291148656572
H         0.49072879646509    5.44993760418943    8.78387286934591
H         0.37713951157575    5.99986166822556   10.46477611598482
C         0.87245009950323    0.41859600960289    8.75105368896524
H         1.81160807552621   -0.10502776758068    8.93021132050547
H         0.88434999755226    0.81006018200193    7.73762645619215
H         0.06239415488402   -0.30681873338917    8.82865117097524
C         2.90305088795755   -2.77226312642088   12.80090996117797
C         3.90709728202036   -3.29374323777597   11.98616003140302
C         4.77514022935701   -4.22889097381070   12.52915963833475
H         5.56058313533821   -4.63004742205568   11.90669587079707
C         4.66198983326682   -4.64804445867912   13.84544196771818
C         3.66435996375583   -4.09711172129837   14.63889243752243
H         3.57937995273778   -4.39999213238947   15.67257577107683
C         2.78162900931886   -3.15496827013783   14.13824822559758
C         4.07398757408096   -2.83709627014061   10.57196328958294
H         3.11377350479520   -2.72258265627646   10.07046808727444
H         4.68339699935236   -3.54145569902987   10.01275330304877
H         4.58322856772217   -1.87258128917530   10.56594057339892
C         5.59044761247095   -5.68375612934247   14.40190993565386
H         5.13498973970864   -6.67189063280108   14.32660878335736
H         5.80096207771849   -5.49216248132190   15.45187544418671
H         6.52593686917766   -5.70098793442777   13.84836690360550
C         1.73792927225358   -2.53142194905113   15.01636853477009
H         1.80047366132855   -1.44445653633025   14.96284838525409
H         1.88200723533601   -2.83414601530042   16.04981641195598
H         0.73426740055355   -2.82644772055492   14.70969845822460

