100
CSD_code = CILKAK | q = 0 | S = 0 | Stoichiometry = C44H51AuBN2P | MND = 2
Au        7.57232562189886    8.44797520308995   10.86323785376985
B         7.71140997447008    6.58390595010502   10.10901407492368
N         7.69275233358312    6.16252955722240    8.74308683822819
C         7.81256268824733    4.78546739841019    8.67269539182103
H         7.82061394000753    4.26626321352691    7.73291541163154
C         7.90975647700543    4.29647203048608    9.92170557771195
H         8.02826118718620    3.28061257154405   10.25026112918051
N         7.84552762302748    5.34982154643865   10.81988258817984
C         7.57553154895772    6.94034334238355    7.57245116286993
C         6.31337022453599    7.15353016081934    7.00925233473199
C         6.21534630289277    7.92674539828648    5.86153149621524
H         5.24846684415703    8.10247595647226    5.41366410306550
C         7.34165590413725    8.47942002691845    5.28282011777547
H         7.25072511988981    9.07836087465234    4.38807249038952
C         8.58366991347270    8.26958927734690    5.85073229716124
H         9.45657810460363    8.71147142551228    5.39363450314813
C         8.72086560766573    7.50044596098514    6.99724314335457
C         5.07538066771300    6.57097253449274    7.65056757470551
H         5.38132229116287    5.97390013562048    8.51466344273660
C         4.33126841912529    5.65038911879109    6.68169076726044
H         3.96276028714119    6.20294809065248    5.82081616672135
H         3.48179937936276    5.18809972635069    7.18061914673321
H         4.99190539827163    4.86261019807694    6.32597708219650
C         4.16256266381633    7.69118653294454    8.15363163297105
H         4.69843390641528    8.32928088307127    8.85393546210178
H         3.29618828794978    7.27064644195978    8.66004782507503
H         3.81110894754971    8.30668678898861    7.32900064396572
C        10.08085496034947    7.28460088174346    7.61899691474443
H         9.96550184771485    6.61487402523546    8.47599619810457
C        10.64426356880183    8.60979319292759    8.13542994548337
H        10.78536359676452    9.31592033896558    7.32068253000302
H        11.60417768712035    8.44684084020548    8.62084681301579
H         9.95875264698877    9.04722773651164    8.85938636088281
C        11.04417858599911    6.62755623603392    6.62907177418768
H        10.62801391953896    5.69274786861328    6.25951794389372
H        11.99328212055831    6.41371322700025    7.11642586947512
H        11.23637632768968    7.27688894762124    5.77842994826180
C         7.94693590613331    5.10688904021613   12.20606700136348
C         9.21152045071664    4.95142518642634   12.78458719932124
C         9.29498715633714    4.68095258298461   14.14247460881038
H        10.26113161103219    4.56117944798656   14.60888053885366
C         8.15226449096455    4.55350219271085   14.90850306205628
H         8.23088798329188    4.32379412927610   15.96164707027570
C         6.90798472477253    4.72339482563601   14.33217513474281
H         6.02576456277747    4.62635778602028   14.94528650908742
C         6.78518014243360    5.01185061831828   12.98137071773220
C        10.45673425835126    5.12154632642494   11.94436699807406
H        10.18229684220254    4.99720325211844   10.89282991239341
C        10.99471720142852    6.54407510115464   12.12511081884230
H        10.24685118979909    7.26885817666825   11.80591712684467
H        11.89286501266432    6.68715757240562   11.52801630511334
H        11.23876365496666    6.72899178382447   13.16953729938791
C        11.53644495148572    4.08909699310571   12.26852862598199
H        11.97839316384491    4.26891346182301   13.24553011757024
H        12.33135404158814    4.14190054854938   11.52730062013880
H        11.12031588158990    3.08398416021315   12.25590734431602
C         5.43004726155422    5.17648345419935   12.33225608217245
H         5.55881193203692    5.81582311631079   11.45143840424249
C         4.91764319623542    3.81302552522618   11.85708725570500
H         5.59767580526891    3.38533547765303   11.12447554821590
H         3.93693664116004    3.91727010444514   11.39703030554722
H         4.83650406806688    3.12557851952323   12.69701854593232
C         4.40598521275913    5.83622848738351   13.25511195545865
H         4.08359488338784    5.15311778014309   14.03742662922956
H         3.52544328806164    6.12550847270900   12.68472035493481
H         4.82401114381870    6.72535344666516   13.72257052761749
P         6.74953758271053   10.25537332439150   12.47184857181144
C         6.69783167967302    9.22518699658546   13.97630397327364
C         7.85142962870023    8.52171229326002   14.30649402784738
H         8.71128124753067    8.57717399366024   13.65221151288159
C         7.89899791709778    7.75943157690384   15.45768469419778
H         8.80031457334483    7.22303750155273   15.71116258465138
C         6.78618609259220    7.67998616937485   16.27868178152984
H         6.81768811484949    7.07772271319171   17.17442502785255
C         5.63221763736247    8.37275921305706   15.95169682280688
H         4.76365069918344    8.31145863050527   16.59173237447079
C         5.58586851206269    9.15025534455102   14.80764899297506
H         4.68656660171781    9.69748637236752   14.55894554685108
C         4.97314745637096   10.40176925731238   12.09224930638993
C         4.31879273762608    9.22758411717050   11.72333704850208
H         4.87447474544474    8.29937626287812   11.70244715941845
C         2.98000706583190    9.24933352609813   11.38578556326066
H         2.48019016014972    8.33303556223641   11.10807407698623
C         2.28022560417530   10.44517274694290   11.40021472846661
H         1.23344585669744   10.46417402624195   11.13524340747447
C         2.92780662947201   11.61648099483860   11.75498212751428
H         2.38618875028149   12.55134255430220   11.76696763568895
C         4.26806374983517   11.59992580920454   12.09954385853424
H         4.76070596095028   12.51989808799941   12.37987036010633
C         7.09813244367265   11.90537441780059   13.20415437161154
C         7.28576528875865   12.14759674700453   14.55992840579287
H         7.16305576985987   11.34836200309294   15.27696689557911
C         7.62030187978870   13.41837099365596   14.99387946800941
H         7.75659486885992   13.60276536027345   16.04991320602078
C         7.78010806852269   14.45137310554185   14.08572196844052
H         8.04007571891874   15.44078727524661   14.43187799543593
C         7.61611501234107   14.21133902179127   12.73008624947459
H         7.75037633088989   15.01230710769314   12.01743038565984
C         7.29108813255971   12.94309237591017   12.29174659000319
H         7.17450589778693   12.74044330734622   11.23363610391835

