77
CSD_code = CILPIZ | q = 1 | S = 0 | Stoichiometry = C33H39N2O2Ru(1+) | MND = 9
Ru        1.27942782805034    6.30520374077696   14.51839499387472
O         2.70159607494343    6.49969562723860   16.07769984376118
N         4.41699867328810    7.71362480788810   16.91320548499218
H         5.01033934638265    8.51728653364194   16.77513175091952
N         2.67641326527584    5.20639691238815   13.50159559696989
O         1.67492883719866    5.91815844907807   11.63475776135878
C         3.37011557039887    8.34209281523285   14.81052800070153
C         3.49772848407089    7.47021229676560   15.98137237789780
C         2.33574596640858    7.94106419003170   13.94126622508654
C         4.12844644627348    9.48546811842077   14.55440557034372
H         4.92751736941883    9.78738504981177   15.21737449489587
C         2.08037547585969    8.73703641594242   12.83370441970330
H         1.28970493402035    8.46335756638120   12.14968314496849
C         4.60201383726032    6.99022193146586   18.17828301850571
C         3.60566357641268    4.47810848512226   14.13539654523486
H         3.59423964663589    4.53399223724929   15.21722639114389
C         2.63902174390251    5.15337594369889   12.16015872387114
C         4.49732253827927    3.65265399488514   12.08565196016631
H         5.20748460659154    3.05806616358747   11.53419834555222
C         1.35532356237593    5.79688592111943   10.27787367181323
C         4.52380410129490    3.69013054625694   13.47491649007878
H         5.24534758467611    3.11856025233796   14.03413471786168
C         3.54166461777025    4.39240957794851   11.41885229967664
H         3.48640613107110    4.39973700015643   10.34209059383979
C        -0.58026455045185    5.36021616868523   13.52900102503240
H        -0.73348007387379    4.82377972827557   12.59863716763844
C        -0.30887633724798    5.34273016828052   15.92869304908221
H        -0.22455546132145    4.81504127553642   16.87167685957571
C         1.46510501953993    6.91591887219439    9.46557716301964
H         1.85344145286474    7.83377804810509    9.87751579772025
C        -0.40458512259822    4.62229485953410   14.73913580149423
C        -0.38951419119285    6.76123242831402   15.93591276068295
H        -0.38030685647788    7.28506424298760   16.88750067017143
C         2.82395231842032    9.87912954794877   12.58545610111277
H         2.60227417040113   10.48911743724632   11.72172061076858
C         3.85394323932608   10.24947360798849   13.43910649235796
H         4.43326973546924   11.13625035762615   13.23411066491337
C         0.59656454295086    5.64542843036794    7.60330494921105
C        -0.47583308336892    3.11315411284098   14.75534341322279
H        -0.10761611855356    2.76558189211813   15.72723134195844
C         0.86818369702411    4.60411240251750    9.76395294655395
H         0.78850550385941    3.73480212443247   10.40095845358610
C         5.77666335236399    7.64983567550873   18.89584796712118
H         6.68481336931341    7.56808985068274   18.30253641397637
H         5.94994569566073    7.16177826889512   19.85031574079902
H         5.57141922043116    8.70102891329541   19.08693511917746
C        -0.64560407121336    7.48260908500242   14.75305391037096
C         4.91550474622882    5.52166111780727   17.88677631724687
H         4.05042633667708    5.03303984798448   17.44805888682214
H         5.16970422765324    5.00952953069595   18.80999802573632
H         5.75555894939688    5.44135630813091   17.20053368527190
C        -0.74656554249601    6.75115407886364   13.53537898596404
H        -1.02084165518500    7.26535776710561   12.62139026492816
C         3.32552756121859    7.11170265131613   19.01295669836268
H         3.10942925648530    8.15568086568667   19.22768565871811
H         3.44418121859061    6.58036949854269   19.95242839697243
H         2.48464599710497    6.68331664136459   18.47377737499774
C         1.08506789392338    6.83336594706339    8.13980822579472
H         1.17335175497053    7.70348712272687    7.50705646021634
C         0.49404819334951    4.53619353822314    8.43377333608839
H         0.11683240173139    3.60492419431101    8.03893206526972
C         0.37367650298574    2.45815379347012   13.66567581627966
H        -0.01556071436425    2.68077429769389   12.67479879077810
H         0.36136157875002    1.37862199659458   13.79248796067768
H         1.40728528848668    2.79659780667259   13.72423500945563
C        -0.93437448383101    8.95310407593218   14.78389506651629
H        -0.55447454840767    9.40848715701315   15.69565019825515
H        -2.01312604014176    9.11121688552580   14.74409888713198
H        -0.48701829736382    9.45752098337464   13.92977345819988
C        -1.94432583082896    2.69285723569070   14.61902002102568
H        -2.54521933101571    3.13174176616990   15.41235771190691
H        -2.02801452220397    1.61122243473556   14.68233216649014
H        -2.34976170021926    3.01444894013652   13.66206768712005
C         0.20013918194070    5.57713007625764    6.16357338293578
H        -0.57405079325967    6.31175768520622    5.94862631364239
H        -0.17380451834811    4.59066896538758    5.90507889002761
H         1.05392121896186    5.80388471449174    5.52684741439135

