75
CSD_code = CILPAP | q = 1 | S = 0 | Stoichiometry = C35H36NiP3(1+) | MND = 4
Ni        4.56241629457200    6.06663688177922    3.64154054430036
P         6.60025188439201    6.38232084462064    4.32829155168850
P         4.37446590870901    8.19725452816021    3.67244490804219
P         2.38588521654089    6.08447681876606    3.58105598934500
C         6.55147597922082    6.34314917875853    7.12966078587082
H         6.07122462398982    7.30970469259657    7.07198050015927
C         6.77307268116456    5.76318689967601    8.36556008481653
H         6.47455237782556    6.28355013914293    9.26361914132991
C         7.37690809641106    4.51949456029183    8.45198424432228
H         7.54913016032365    4.06954934401246    9.41747324433145
C         7.75701458068678    3.85275396080880    7.29803741083074
H         8.22412016232241    2.88209447090264    7.36356430978124
C         7.53875265229954    4.42756066977202    6.06003680104506
H         7.83625810006890    3.90979824006911    5.15886395522128
C         6.94797147639404    5.68533448782123    5.96885418206318
C         9.33263884606209    6.09815447871109    3.83885695873078
H         9.47653498585139    6.49583073046972    4.83381413958707
C        10.42106342112914    5.76486877882528    3.05542211345278
H        11.42063037795646    5.91029967634968    3.43604710439151
C        10.23196948079305    5.24225640063256    1.78438872540347
H        11.08648478807409    4.98269005184705    1.17862453515990
C         8.95151289750635    5.04839609344974    1.29367869825752
H         8.80628991178394    4.63727078519095    0.30625693095855
C         7.85755026631760    5.37957639760941    2.07341940105343
H         6.84982846534357    5.22464392710796    1.70915640488098
C         8.04474029019580    5.90456497781831    3.34602774077777
C         6.91106885998835    8.22337037404511    4.53564887818222
H         7.62486260551006    8.38862112949379    5.34658492393346
H         7.38416534786145    8.53798037901971    3.59865849260398
C         5.62158683063470    9.02538614837526    4.74067155377387
H         5.75818428843475   10.07800529175659    4.48001022173366
H         5.26793235006561    8.96792401637347    5.77465288156911
C         4.94052328975459    7.71797117756818    1.05416455512328
H         4.84573490043837    6.67611246713170    1.38089734083396
C         5.23421816867135    8.02686144782735   -0.26023482937755
H         5.38141469101986    7.24069903391192   -0.98507012174653
C         5.33794401221041    9.35549911163800   -0.64226566189033
H         5.56800916264321    9.60292923333908   -1.66707182118554
C         5.14639776398015   10.37054809817776    0.28344472996046
H         5.22662191315698   11.40202864586001   -0.02432166820713
C         4.85278672742094   10.06689636175132    1.60058469199194
H         4.70170665001924   10.85770976728912    2.32284899344885
C         4.75252384854230    8.73514354553472    1.98697860900731
C         2.66366766635584    8.81107266978318    3.97193777738455
H         2.46424855598571    8.77763818175964    5.04793818612279
H         2.52227296099708    9.83372598632557    3.61330799492476
C         1.77640284214735    7.81194617691843    3.22481900141705
H         1.85565842550517    7.98608645140549    2.14721809504696
H         0.72532104776123    7.90046211264734    3.51177794606458
C         0.81388724387498    5.28427497359369    1.42380138653345
H         1.18344575532914    6.16634656638813    0.91988012913760
C        -0.04984069908349    4.42737864227519    0.76680292481417
H        -0.36157998682655    4.64952470452348   -0.24250475998429
C        -0.51006110744856    3.28369627382458    1.39968378785440
H        -1.18402639846267    2.61714058986144    0.88419780023660
C        -0.09773626139157    2.99030059946913    2.68983143236914
H        -0.44702379086058    2.09372652529089    3.17883243631782
C         0.76443698058808    3.84316508050781    3.35337783836245
H         1.09146821603704    3.61515888991504    4.35848566527129
C         1.20659245038478    5.00803117771989    2.73076818376594
C         0.66058727712051    6.05087324097641    5.80694174784159
H        -0.15600712163808    6.14667879377985    5.10461313250704
C         0.41145512369092    6.00220911136595    7.16621709185799
H        -0.60325402361769    6.06902290206484    7.52810090531614
C         1.45929808247966    5.86539773024509    8.06507963218119
H         1.25539140626490    5.82744516262206    9.12412008723584
C         2.76373409049714    5.76957232815814    7.60760696859441
H         3.58006195933519    5.65308334734355    8.30480195956217
C         3.01683437036411    5.81429265683632    6.24902981386294
H         4.03895195491148    5.71444824711132    5.87163031973120
C         1.96971210323060    5.95759237883986    5.34436540992807
C         4.70225847682529    4.12508127508541    3.43963612105089
H         5.68196776516202    3.70488228638214    3.68482705141355
H         4.48801985701254    3.91722883775087    2.38102868464227
H         3.95482944119305    3.59541185495418    4.04050307315701

