50
CSD_code = CILPEV | q = 0 | S = 0 | Stoichiometry = C22H24ClNORu | MND = 9
Ru        7.27376331926364    5.75080191628869    8.27582240254864
Cl        7.17183076026981    3.46959939479862    7.70814060356733
O         4.23108280239540    6.71661026377162    9.08573614755684
N         5.98854107038026    5.31406431042737    9.74942522210548
C         9.40438610529472    6.01267418339258    7.48988813439869
C         8.61336212704140    7.08650064128752    7.03818384569209
H         8.59333698177222    7.35152130651715    5.98756258666015
C         4.59896370282700    6.30211190424758    4.95655375795652
C         7.95888024611424    7.61367877287255    9.34591647026223
C         5.65359428340515    5.91870363254789    5.77824980185802
H         6.53720458459314    5.49046077834577    5.32091177129047
C         8.86767000061028    6.61148172499145    9.79989502529659
H         9.02522616717437    6.48991948972345   10.86667952456044
C         4.23396807384534    5.91829622344387   11.26106529194847
H         3.33533920298234    6.49368535865635   11.41041483111915
C         9.56970561121776    5.82856886647104    8.89659516633995
H        10.27436967842461    5.08556471868347    9.25103406460301
C         3.37527482908693    6.95790775401677    6.91575616540987
H         2.49207882099252    7.35741008624719    7.39058585690208
C         3.46015185971262    6.83696519883084    5.54231392939660
H         2.62958624648618    7.14985547594329    4.92674505973563
C         4.84490200554011    5.96919067671941   10.00132761648796
C         5.60915806443498    6.03934609045710    7.15912023091507
C         4.44079177294250    6.55261099117827    7.70860617008162
C        10.26701247722736    5.21297885160999    6.53874455353080
H        10.62692208083758    4.32710031275489    7.07395265518163
C         6.48243318236399    4.51240270127912   10.70653993033680
H         7.36029247616661    3.93857790262169   10.42884489253529
C         7.87478683282406    7.87142516198784    7.96307003208252
H         7.30004657773752    8.72060394376385    7.60771757478000
C         5.91883869490170    4.38969412197302   11.95595648434782
H         6.36172590729075    3.73041578568173   12.68404358836828
C         7.25443911015515    8.49771817747996   10.33671037716093
H         6.32614388157844    8.88458601876018    9.91955205582672
H         7.89137118209630    9.34614425416889   10.59555859050185
H         7.02569419187077    7.95597025494511   11.25407451677435
C         4.77907112982356    5.13220606378192   12.25175949426654
H         4.31937537593999    5.07929189130380   13.22593316877937
C         4.71172983583017    6.15105129179281    3.46888724604546
H         5.40475543205789    6.88964240082532    3.06511140159648
H         3.74601777690330    6.29035316112856    2.98959925822385
H         5.09180577639081    5.16355768576331    3.21573259555163
C         9.49692553374792    4.72946329596576    5.31088436176537
H         8.62048750632491    4.16759638239628    5.62979464471376
H        10.12789085167469    4.07393931673038    4.71531897462437
H         9.18434379888956    5.56155556281453    4.68366227065362
C        11.47793846478029    6.06174546690707    6.13344098540530
H        11.15888303697929    6.94527957919046    5.58396769751302
H        12.14215891777116    5.48200014561544    5.49719267720605
H        12.03524165098293    6.38537050889945    7.01092029554673

