46
CSD_code = CILPET | q = 1 | S = 0 | Stoichiometry = C22H16MnN4O3(1+) | MND = 6
Mn        5.70599510517456    2.32281075684650    3.82620024190863
N         7.51853616912586    3.13055886396718    3.48219946538482
C         7.96252756598155    3.63250591555202    2.32960394815339
H         7.30728184779099    3.54450641588019    1.47224905183534
C         9.20010239377268    4.23790473578113    2.19103702341205
H         9.50604254049804    4.62148137983104    1.23155669558029
C        10.02458658334702    4.33515906344709    3.30122564929923
H        10.99380270177133    4.80330537042696    3.23468016060737
C         9.57964070502674    3.80653086018211    4.49931029620676
H        10.20588021758696    3.85971584753993    5.37406384349991
C         8.32473598912214    3.20281962630433    4.56015913257097
C         7.78834299152571    2.56580109986362    5.76961453128153
C         8.47779106136483    2.50664281034967    6.97967007199021
H         9.44435367575624    2.97056129239316    7.08310381305493
C         7.91614793277778    1.83962214527152    8.05304401471166
H         8.43700587211848    1.78031428464041    8.99546215274593
C         6.67694762715394    1.24188083532548    7.88252116353127
H         6.20359897892679    0.69749560875496    8.68308562492110
C         6.04754979448730    1.34962488567592    6.65421663847180
H         5.08365210755944    0.88148207045457    6.50032144104186
N         6.57387407695641    2.00024571530670    5.61619791660685
C         6.24789585174577    0.73207824622788    3.20285193307770
O         6.58231419322032   -0.28343790843241    2.80302903358939
C         4.11155547000763    1.62711740226727    4.25348847397790
O         3.08229588833125    1.17768380590391    4.47633084533224
C         4.99929538208015    2.74788454355404    2.23152210891796
O         4.50762845348049    2.98513727037849    1.22697676907445
N         5.15775288370391    4.19304873965648    4.59867702570321
C         5.43331899694379    5.41952493039143    4.06511534489684
H         6.01848660414834    5.54280866394745    3.17417926198760
C         4.84439142128516    6.38346602740548    4.82709693419659
H         4.81931331754575    7.44653608093706    4.71113225611047
N         4.19177403312745    5.73707474435572    5.83546536701374
C         4.40543029248133    4.42242859886081    5.66096606909904
H         4.01795050729979    3.67148819518399    6.32360786018496
C         3.41974220433233    6.33533571720344    6.85747287199035
C         3.83460804521590    7.53516795006064    7.42210818953911
H         4.75222264374444    8.00014863946948    7.09483652716950
C         3.07143109493174    8.11997488039197    8.41683660648888
H         3.39225614501381    9.05171752969248    8.85547294894133
C         1.90391437998399    7.51209390262976    8.84832454437661
H         1.31127232646523    7.97250217985312    9.62279082995693
C         1.49486657075336    6.31544173098559    8.28265196810760
H         0.58232937560970    5.84389277892896    8.61166460444914
C         2.24809186878195    5.72244739123365    7.28522775378439
H         1.91746611192790    4.80376837511611    6.82485099521792

