89
CSD_code = CILTUP | q = 1 | S = 0 | Stoichiometry = C42H42N3PRh(1+) | MND = 6
Rh        2.75905625436604    4.46134334607334   17.88313703476372
P         0.36629040069132    6.32854913930373   16.46514157636711
C         4.14458164335983    5.91365167923864   18.11723758209706
C         5.89998587144643    7.31187126801936   18.15645218566834
C         5.08462299370607    7.73604281735014   17.13582323512290
C         5.10883425094142    8.75243546931795   16.15457377177799
C         4.08077459072444    8.81162400047459   15.26366794066563
C         2.98452585833880    7.91876740253570   15.33064979576195
C         2.93081430969022    6.96207536373042   16.30594050959127
C         5.87008184066031    5.53466591026090   19.83522811123797
C         6.96837320756827    4.69763616036382   19.64010721780674
C         7.50831631378104    4.05638974343942   20.74448899356282
C         6.98680117722251    4.23749405211594   22.01845726097428
C         5.89835367524386    5.08406181481401   22.18022118832800
C         5.32673262100185    5.74372342541356   21.10329610698349
C         7.56185739353059    4.50618536061111   18.27673222998007
C         7.58277335337472    3.51911957938826   23.18685936071192
C         4.17164406268846    6.68132821562644   21.29221872382841
C         4.00096947369991    2.87221438282508   18.59626296299805
C         3.16624184577904    3.32124639275060   19.62025464722388
C         1.92645344191057    2.59931326397276   20.09441775946331
C         0.99472499389857    2.15129290899894   18.95102418393240
C         1.08336744367599    3.06052291993871   17.74731105574602
C         1.94072412499478    2.86208544413463   16.68665271082841
C         2.96353877276488    1.75801125917680   16.57778888611329
C         3.78874147576591    1.56652368674445   17.86137647008392
C        -0.03369049820529    7.99009327209116   15.85991743928820
C         0.33831011156012    9.06049158862089   16.66904172457301
C         0.07728335880266   10.35339732448026   16.25855574243466
C        -0.55914324827856   10.57818544554761   15.04674906753326
C        -0.93591204418194    9.51197223791133   14.24635044854398
C        -0.67340604804197    8.21315086676342   14.64785395306351
C        -0.41148717666488    5.13305289566369   15.34767510116705
C         0.25021694838980    4.88074238510880   14.14830424774379
C        -0.29036535760079    3.99367895438974   13.23610541535113
C        -1.48813610471190    3.35580235805829   13.52122554420576
C        -2.14432095955641    3.60348932069731   14.71636975103506
C        -1.61088564372849    4.49294975274685   15.63294290478514
C        -0.44214209635714    6.29842490036772   18.09501741449458
C        -1.76341525293643    6.73076593471697   18.18106832243868
C        -2.39593380770087    6.76213733226731   19.41020512013873
C        -1.71055968755893    6.38115911282912   20.55386760695159
C        -0.38918919822226    5.97146546805069   20.47064563590310
C         0.24626308150509    5.93080105402387   19.24267415210768
N         5.30757467041669    6.21804997724285   18.72256994827588
N         4.01053156524452    6.86162403809419   17.14972990324178
N         1.95078652962545    6.03479748218855   16.57361723843810
H         6.83375473865264    7.69768296873607   18.50664812537062
H         5.93827023208613    9.43767372005094   16.12548848409473
H         4.07902285480788    9.55777104185560   14.48530070062702
H         2.18985963353916    7.99660555308754   14.60708015513434
H         8.35826664618790    3.40447462123060   20.60838929652330
H         5.49006951271107    5.24023243900618   23.16769433281817
H         8.10899018294173    3.56846344097158   18.23011048261053
H         8.26167213939162    5.31219465050296   18.05495544457236
H         6.79596129392284    4.50602439245821   17.50270713733266
H         7.27883318629709    3.97644874421089   24.12433510992123
H         8.66860484972989    3.52180448256583   23.12746964834878
H         7.25292310142164    2.48025348726216   23.19073712305285
H         3.80232882385137    6.62927410453622   22.31228423290439
H         4.48335150766208    7.70692415885708   21.09283610491477
H         3.35688027645971    6.44038585974777   20.60870720507809
H         5.03583464047804    3.20352841218317   18.62582734309997
H         3.61788519499237    3.94632621482511   20.38997811759245
H         1.37578045085307    3.26653221404025   20.76126979914224
H         2.23031297989469    1.73282915779460   20.68987381027538
H        -0.03289759255851    2.14896768188451   19.31836324476775
H         1.22939474847131    1.13191699629507   18.64437920562461
H         0.18360636604628    3.64631156324018   17.55437233000394
H         1.66530557142671    3.29520779437864   15.72358584065147
H         2.45422683660794    0.82601806144599   16.31220228140452
H         3.63934302381880    2.00153278918709   15.75418328561519
H         3.30344377858132    0.85515257075877   18.52924765769476
H         4.75938801046885    1.14677375983570   17.59375046583741
H         0.82947211313370    8.86843184493277   17.61456597613653
H         0.36665603318878   11.18573520519324   16.88141461996618
H        -0.76410761283528   11.58814040396975   14.72716628363839
H        -1.43551127798303    9.69050143733429   13.30652835155986
H        -0.96412775489524    7.37811619255879   14.02568868342454
H         1.18933547765913    5.38022465162460   13.94640349563754
H         0.22046391143739    3.79798210813543   12.30566051381668
H        -1.90962435012745    2.66191441693509   12.81057807583466
H        -3.07429862854324    3.10215460114645   14.93633176707196
H        -2.11969466076216    4.68180285343635   16.56766325088653
H        -2.28532968232325    7.04830482578763   17.28800828610491
H        -3.42196052667035    7.08974358503375   19.47789272266316
H        -2.20653316506633    6.41011864632908   21.51171651754245
H         0.14598597619553    5.68824639889291   21.36450540352162
H         1.29100062626171    5.60066523926233   19.16009090379682

