78
CSD_code = CILXEB | q = 1 | S = 0 | Stoichiometry = C24H43BN6O2OsP(1+) | MND = 6
Os        3.65734154251557   19.31495981412660    3.62474802456837
P         1.55666210280700   18.15812600714228    4.12513240419477
N         5.43957915087925   20.26596481024239    3.21942623649843
N         5.52457237390341   21.16112056114053    2.23415596268395
N         3.47832389305040   19.11157460578097    1.56968897878988
N         3.78816595188454   20.17030763026670    0.80528814653602
N         2.82447898729673   21.17501865793682    3.42374309642701
N         3.21170588636991   21.95997519257300    2.40937803619204
O         4.12949880223618   19.62989065598145    5.68942992632567
O         4.82249420609153   17.57433889041500    4.00712461601877
C         6.63887236084263   20.16654386440409    3.78081155265407
H         6.82054518484061   19.50566627828783    4.60735770615235
C         7.52865097035328   21.02421952116988    3.13677770868818
H         8.56531945854216   21.17224625415001    3.35517324573187
C         6.77426555789366   21.63779674651816    2.15781264301642
H         7.04765983105283   22.37033083643614    1.42704870522066
C         3.62190155121603   19.86594721964592   -0.48793836247084
H         3.81929006215454   20.58318933204018   -1.25726138609382
C         3.18704900938504   18.56068851412694   -0.57321119005034
H         2.95734278876936   18.00086976478463   -1.45490365592480
C         3.11064106531990   18.13039360516198    0.74779899355000
H         2.80398777345744   17.17202656571492    1.11104529939023
C         2.63353901068884   23.16356242610774    2.51790645281580
H         2.81404738798010   23.93416071533172    1.79752447817835
C         1.84642951752491   23.16511201605578    3.65016101249864
H         1.24683433683253   23.96455311161680    4.03124827776168
C         2.00418581124332   21.89100520049251    4.18903532171689
H         1.57651948179870   21.48776308812741    5.08527902059784
C         0.06239297731631   19.13217592683153    3.52917349673709
H         0.15054967861844   20.08607901366739    4.05939280743550
C         0.17964117791971   19.43730064395816    2.03712463649301
H         0.13045755785477   18.53020218303456    1.43916358731567
H         1.11317040425321   19.94857080807203    1.81686054323993
H        -0.64067113860496   20.08305562596307    1.72970310698186
C        -1.32052040125906   18.55880694971166    3.82638052748114
H        -2.06961621587991   19.32084353861323    3.61562313601181
H        -1.43228713601728   18.26871825937872    4.86756363324023
H        -1.53648740911542   17.70717315706339    3.18738917932949
C         1.18940630255788   17.90236532830413    5.94335891102753
H         0.26124055014443   17.32913380598337    6.02214074167016
C         0.99990556015509   19.22288034786253    6.68292627108663
H         0.82244125671179   19.02800753304594    7.73959368378035
H         0.14566886483081   19.77708001867895    6.30158184943879
H         1.89374661966775   19.83513275129006    6.59907418192431
C         2.32716029435068   17.10262390226896    6.57652169206681
H         3.28512339198417   17.55451039395841    6.32967270876837
H         2.33310641439191   16.07428585038163    6.22674696222900
H         2.21462032223208   17.08439808212822    7.65952190922851
C         1.24308036969505   16.43551051795952    3.41540885625944
H         0.86937621478469   16.64450739039273    2.40506050802033
C         0.20765707942993   15.56835996690511    4.13253055578348
H         0.01319032682773   14.68808577263706    3.52106926251082
H        -0.73742786479591   16.07396214594273    4.28952508897398
H         0.57991148944175   15.22011271213845    5.09211643489459
C         2.53245180668683   15.62404558370912    3.28710388659915
H         2.88187663762571   15.29387582756488    4.26149539683822
H         3.32597144052679   16.20499919004762    2.82932270054070
H         2.35297923320872   14.73853171319163    2.67867541553053
C         4.62209276287945   20.44184074229754    6.46173900830448
C         5.06080626651708   20.01065406924657    7.83228456299494
H         4.76595610211060   18.98226469513436    8.02382471819779
H         4.63083758911805   20.66292937806529    8.58911836192324
H         6.14416074192080   20.08963833212827    7.91096360478780
C         4.80591638667661   21.89913208591829    6.15742691356116
H         4.66830803347495   22.10392089744207    5.09929717528801
H         5.79387569077615   22.23017464685472    6.46883871824807
H         4.07359538656103   22.47763212291785    6.72062416129197
C         5.80335749251394   16.97998274373608    3.57770240184706
C         6.53583940513016   16.00233483779115    4.45081338687276
H         7.57740026611658   16.29997710761964    4.55605261603222
H         6.52402389907164   15.01493262787055    3.99332969973164
H         6.07330688209919   15.94947681488915    5.43288417859874
C         6.33025482489590   17.12958243747383    2.18121685795034
H         6.22301897562574   16.18538611912985    1.64887779123808
H         7.39013577463861   17.37404226184448    2.20069585806060
H         5.78989603263371   17.90346209342631    1.64136121775913
B         4.27475670327830   21.49302844597318    1.40584830997284
H         4.49154092148671   22.30302071377970    0.57999753423018

