87
CSD_code = CILYEC | q = 0 | S = 0 | Stoichiometry = C38H40Br2N4O2Pd | MND = 4
Pd       -0.80466507761302    0.95648571186821    4.79286921293055
Br       -0.52386061742220    2.60765214878851    6.59514939220981
O        -2.98963704289631   -0.56788189205259    6.48785135570944
N         0.41571842036971   -0.92455692493471    6.87603561032529
N        -1.71275305812610   -0.80679014245782    6.92202274919463
C        -0.63640772571286   -0.39522560934550    6.23667327849684
C        -0.00422995428832   -1.67025138603612    7.96270992293901
C         0.94022770641974   -2.37766131244676    8.86313462950118
C        -1.36244948397480   -1.59925507354322    7.99531480800055
C        -2.37649235009199   -2.18124535261144    8.90924670558689
C        -3.66476854886504    0.54156695243486    7.12908983246358
C        -4.58400913082320    1.11613690109511    6.08743548412304
C        -5.91918501599305    0.74667298157238    6.01649716995130
C        -6.72010623032372    1.23282639455269    4.99679400768872
C        -6.19296462692972    2.08218319075601    4.03902763072347
C        -4.86046262673224    2.45360634798529    4.10256857707293
C        -4.06024485117652    1.96904007203124    5.12143128351414
C         1.77994958355154   -0.80232696258441    6.41929305885361
C         2.72379165809652   -0.21759164809903    7.43541669287101
C         2.33434980874247    0.84185915884367    8.24362069764863
C         3.22681590333984    1.39475687952202    9.14445974992712
C         4.51561067499697    0.89934052357368    9.24207099443957
C         4.91022939981090   -0.15372725713604    8.43436065403704
C         4.01725209286417   -0.71114299224721    7.53750270503528
H         1.62892865233392   -2.99658359269956    8.28937570669810
H         0.38834978877590   -3.01007255708405    9.55281003565931
H         1.53085183694150   -1.66468837590243    9.43775699235795
H        -3.27213135972456   -2.44127128509876    8.34706496268345
H        -2.65199749111187   -1.46849337157640    9.68771543697923
H        -1.98572639162884   -3.07570821229063    9.38687014913648
H        -4.21641312382191    0.17170696606380    8.00088625173423
H        -2.92629288053847    1.28570902497807    7.44667869584577
H        -6.33306428237252    0.08124530727708    6.76079228927479
H        -7.75986931014498    0.94367899065205    4.94859795554673
H        -6.81960570497616    2.45364015510372    3.24212869316400
H        -4.44059228277884    3.11625542828388    3.36164859404548
H        -3.01725424924662    2.27355492699007    5.18152678467544
H         2.13928609071451   -1.78696371850187    6.09742952060845
H         1.75488528575168   -0.14633406008210    5.53508144267823
H         1.33805677700154    1.24803437836364    8.16215704815936
H         2.91324323119685    2.22086758902617    9.76453955671687
H         5.21287425849501    1.33449671601040    9.94280136796286
H         5.91576355205475   -0.54244471543294    8.50259873418839
H         4.32941506962169   -1.52980798779990    6.90410849920523
Br       -1.08497525941062    2.60766944620378    2.99035621109264
O         1.38052947622446   -0.56790021489867    3.09788759972123
N        -2.02481680362018   -0.92453221725357    2.70961795204344
N         0.10365398768146   -0.80676979181148    2.66367503846247
C        -0.97270390321801   -0.39522421342410    3.34902405778826
C        -1.60485931305689   -1.67019158260614    1.62292817010355
C        -2.54930894260879   -2.37756775011474    0.72244222613670
C        -0.24663908635233   -1.59920238277760    1.59034760889554
C         0.76740462350059   -2.18112347653467    0.67637405442026
C         2.05570882960162    0.54149748221497    2.45662634413015
C         2.97495284356642    1.11604008690235    3.49829472947821
C         4.31016923419969    0.74663200465042    3.56915423885402
C         5.11116688926828    1.23292367248172    4.58873102465100
C         4.58401664789007    2.08225045297398    5.54654711717477
C         3.25144381425281    2.45354182984253    5.48314087397200
C         2.45119924336903    1.96895387529898    4.46430725853915
C        -3.38905132738144   -0.80225288230472    3.16633890983064
C        -4.33290588562241   -0.21764362918965    2.15015427234997
C        -3.94348123964061    0.84173232693934    1.34185028693454
C        -4.83599281875372    1.39460955585003    0.44104281570265
C        -6.12484848782308    0.89933067121731    0.34364303654785
C        -6.51944668196755   -0.15367894926446    1.15143181125633
C        -5.62638729730806   -0.71115823567127    2.04817297753511
H        -3.23806742359227   -2.99648764420636    1.29615475723498
H        -1.99742094934076   -3.00999664585367    0.03277124631884
H        -3.13991116663466   -1.66458878742914    0.14778271805671
H         1.66305796496071   -2.44112381321839    1.23854158007786
H         1.04286382328294   -1.46832558509463   -0.10207274261553
H         0.37668390399024   -3.07559124885569    0.19871303892640
H         2.60736987119973    0.17159291581627    1.58485438611856
H         1.31726439794063    1.28566312764176    2.13900786733016
H         4.72396417000392    0.08102785372905    2.82500001950052
H         6.15081569691418    0.94353356177145    4.63709701384200
H         5.21067296835534    2.45370744812836    6.34343599326768
H         2.83167972659099    3.11641194912291    6.22388836125322
H         1.40825804616021    2.27358771570291    4.40412949984726
H        -3.74840450283252   -1.78684131029944    3.48831688491149
H        -3.36397185982925   -0.14617321035668    4.05048574524211
H        -2.94724222486271    1.24804350547233    1.42339476921417
H        -4.52247599388519    2.22075603880893   -0.17902554568788
H        -6.82207787649412    1.33432335783265   -0.35721818437746
H        -7.52490143517509   -0.54260479847953    1.08303928019020
H        -5.93850205318884   -1.52984282485584    2.68156977504099

