64
CSD_code = CILYAY | q = 0 | S = 0 | Stoichiometry = C27H32BrN2ORh | MND = 6
Rh        2.29947687089592    8.35107882425351    6.47939004975411
Br        2.08670619323596    8.17627798710849    4.06268135577480
O         5.05620487532880    6.41301891494779    6.37540741373329
N         3.85527097754908    5.76012825891734    6.42765798915616
N         1.75718282079427    5.39568492025795    6.53825341358660
C         2.66800376921954    6.38711244502733    6.48247754891400
C         3.71363486339231    4.38822971632446    6.45015384671250
C         2.37535773133603    4.15995811663182    6.52597901496967
C         4.88278928700613    3.47508329006917    6.39940750152756
H         4.68896922153463    2.57578644533023    6.97911652319542
H         5.75643385266475    3.97955427045800    6.80802243384986
H         5.10119271142484    3.17941557069486    5.37231122661891
C         1.63500620491070    2.87479885989974    6.59803005827332
H         2.33093553321242    2.06338914634359    6.79333186016809
H         1.11685627597206    2.67099725796489    5.66135715327857
H         0.89234165261984    2.90177498298271    7.39380046383328
C         5.50451277814419    6.68646925623550    5.03445359763857
H         4.63309700636611    6.79841243690928    4.37835125661482
H         6.12352457132658    5.85415701391778    4.67794740489248
C         6.27677107593645    7.97367254058099    5.06285709157198
C         7.61480362278534    8.03116202851509    4.70457821996508
H         8.12907617098103    7.13278366554934    4.39419873925411
C         8.28971830604947    9.23995187709437    4.73537620823441
H         9.33090048444828    9.28089238530609    4.45044364911777
C         7.63431117370721   10.39291052800643    5.13076097799633
H         8.16319621504593   11.33462442246739    5.15241368453467
C         6.29897614025944   10.33734534565366    5.49644512418695
H         5.78551424874111   11.23799046914938    5.79953652336220
C         5.62453509754181    9.13245222888214    5.46198696629313
H         4.57308760075403    9.07125293794732    5.74308000653751
C         0.33035037444468    5.62437189206164    6.59249924497184
H         0.19412696076036    6.71412620258745    6.48077766023695
H        -0.05349872408677    5.32372380377771    7.57446169811370
C        -0.41705430912747    4.90457487983392    5.50087703901062
C        -1.52853926600775    4.12841452030882    5.80086747753890
H        -1.86308380203330    4.04018191918739    6.82558847001147
C        -2.21375532798903    3.46927532777958    4.79546884339101
H        -3.07810985610117    2.86898784183553    5.03930344111640
C        -1.78990057919848    3.57739828486396    3.48199893939924
H        -2.32295969337712    3.06006759826631    2.69803807055470
C        -0.68565367779448    4.35559782125012    3.17689228770377
H        -0.35633779067006    4.45385128490152    2.15371385740383
C        -0.00215453031037    5.01897250333398    4.17968347370916
H         0.84549379252857    5.63950622101938    3.93322696731480
C         1.03162458294412   10.08910930780384    6.53001458342180
H         0.45902382415045   10.11019470136888    5.60160114493046
C         2.33905194655453   10.53118820009926    6.49594210300321
H         2.73301822096622   10.86021091910148    5.53367836896842
C         3.05636148167925   11.09434317123366    7.70344097206144
H         2.32756322400891   11.59770868610291    8.34225463638086
H         3.76771957886177   11.85388877233712    7.37220929948196
C         3.81626210704904   10.01662600272644    8.50247339598409
H         4.85072536316614    9.97232241788818    8.15434078376588
H         3.84555413547458   10.29077228659974    9.56379354981348
C         3.21886855426428    8.63494605771655    8.37067224344952
H         3.94182747196737    7.83915158670970    8.55284201931894
C         1.86888028010281    8.34455933266437    8.57369211128360
H         1.62087252498981    7.33421440022762    8.89963134222250
C         0.85608395828778    9.39436891466761    8.98050116699544
H         1.35519512166486   10.15514548583665    9.58337354147205
H         0.09508893067863    8.93205591268058    9.61360773275159
C         0.16314974392182   10.04168202003655    7.76650981875424
H        -0.73936526240442    9.47220272983577    7.52616462195531
H        -0.15791669255151   11.05969284992648    8.01515178996552

