57
CSD_code = CILYEE | q = 0 | S = 0 | Stoichiometry = C25H24MoO4P2Si | MND = 6
Mo        2.80869435258398    0.28918848650135    7.81264785523713
P         0.77359798947833    0.53344318916820    6.48951474241922
P         1.04005064810828    1.41156947728437    9.07936547138530
Si        0.48124336998212   -0.39616977204244    3.60162581901191
O         4.96487867301631    0.33942241172539   10.01416856365322
O         4.59179403745629   -1.28681468812769    5.83837350274051
O         1.79293514262466   -2.34450261564454    9.10224970593966
O         4.01536740805805    2.94505118262107    6.75211366103887
C        -0.14651263212957    1.38282499188802    7.69291445503025
C        -1.41161971569131    1.91588679980598    7.50655208596240
C        -2.05586979321130    1.74286837068975    6.28004971356350
H        -3.04693128769560    2.16553028457202    6.17788140432806
C        -1.52200553622190    1.07936489324567    5.18603484938406
H        -2.14089357809754    1.02343519634219    4.29876972258886
C        -0.26747731429486    0.48931224422637    5.11256565397363
C        -2.08796143514534    2.69188127736638    8.59599536001259
H        -3.15335498796372    2.47016015484342    8.62477383391720
H        -1.97082680700096    3.76105143172625    8.41316741092263
H        -1.64829128620522    2.46514811005458    9.56560301985340
C         0.97437388072211    3.12671696317640    9.67842994757738
C         0.71363512383364    3.49303554900034   10.99355171471616
H         0.50477216948290    2.73622957303663   11.73721329680363
C         0.71740460454422    4.83141587403949   11.34647680092885
H         0.51515275294950    5.11478610639601   12.36908374468532
C         0.97952467936636    5.80471269879314   10.39703370430376
H         0.98280558300619    6.84690452013040   10.67962102026311
C         1.24080683241779    5.44240470426859    9.08424805265606
H         1.44702608330559    6.20068231711600    8.34325265674862
C         1.24310977396801    4.10871412851132    8.72690040620201
H         1.45008427447079    3.81327913281537    7.70334474781008
C         0.30872015732821    0.43124369949323   10.41649274867100
C         1.11917430027295    0.21683616435520   11.53062461194525
H         2.09678194363401    0.68545854040415   11.56861980968345
C         0.68363008699614   -0.59571739961810   12.55876009176421
H         1.31137667269925   -0.75853065878960   13.42241932975778
C        -0.55433261146728   -1.21497054454709   12.47132116125058
H        -0.89259911324699   -1.85706508279768   13.27092028932317
C        -1.34871865395240   -1.02739456597528   11.35299593295492
H        -2.30399027024549   -1.52639846936554   11.27875798636261
C        -0.92077241159132   -0.20888441236435   10.32175304193152
H        -1.53340528037111   -0.08032235541799    9.43928875578236
C         0.92487863975710   -2.14767867278568    4.20556593525946
H         1.53074636029642   -2.08630561411041    5.10901357692116
H         1.49471583314576   -2.69795757908436    3.46366324607103
H         0.03987936667232   -2.73180697716341    4.44212138220947
C        -0.75467648853075   -0.42418078703079    2.15548259877673
H        -1.67069562829524   -0.94220467872412    2.42076768452024
H        -0.32384337900889   -0.93836931873320    1.30340285538675
H        -1.01786536557325    0.57811646901622    1.83319593748846
C         2.06809203170894    0.56930072366108    3.17737723540925
H         1.84967910094493    1.57029639209494    2.81587394798554
H         2.65500174761167    0.06478649154314    2.41645701824673
H         2.69210199810101    0.66767818926119    4.06511586477338
C         4.18652784274177    0.31370208927602    9.17717698347008
C         3.94424454218990   -0.69968543465918    6.57563668847466
C         2.14768826634891   -1.38605307122579    8.59179624337547
C         3.53754730613485    1.97647386975228    7.12547611854682

