45
CSD_code = CILYOO | q = 0 | S = 0 | Stoichiometry = C22H16CrO4P2 | MND = 6
Cr        1.73820754162939    7.38736087163936    7.15703985454411
P         0.68007579695375    7.23623337905277    4.94886442100283
P         0.02029678848752    5.70994192390017    7.20907075594861
O         2.74202161240030    7.18047235478364    9.96464741953308
O         3.91531209463726    9.41342378042573    6.79161298087331
O         3.77429238678702    5.22833755855853    6.67332519761301
O         0.06447245339513    9.63883498780859    8.23925851513892
C        -0.44468950488951    5.99977122079639    5.46388534221134
C        -1.46597591569814    5.45803400687586    4.69884824639466
C        -1.65172177968777    5.86625217023555    3.37576726349850
H        -2.45830310101174    5.40870307490225    2.81996962318921
C        -0.87425462668779    6.81460352042686    2.73327733338263
H        -1.11466504417784    7.04304536282120    1.70252262896597
C         0.18295820811314    7.49504961134618    3.31189150327201
H         0.72455102980557    8.22543789767697    2.72430593680826
C        -2.40014538749027    4.43803185822821    5.27702259822879
H        -3.27492508213637    4.93747336663970    5.69595270926936
H        -1.92149393764989    3.87357771959712    6.07427582292426
H        -2.74130331076472    3.74892967821850    4.50711823372867
C        -1.58827655292697    5.69500798746243    8.07145999245009
C        -2.06480401971354    4.64329416910848    8.84526257980008
H        -1.48587637148979    3.73563167764562    8.94530027749222
C        -3.28879504505023    4.75772495250020    9.48132269034165
H        -3.65753034054385    3.93873928321527   10.08135161798240
C        -4.03933341155554    5.91428505067084    9.35224579414435
H        -4.99313587659583    5.99719288967292    9.85144955289625
C        -3.56436256151629    6.96801234778111    8.58625901254555
H        -4.14645821678355    7.87232081988921    8.48787891243086
C        -2.34095589191028    6.86185908606175    7.95433452670043
H        -1.95667296983739    7.68335907728604    7.36010820876954
C         0.60038661269236    3.98988007425715    7.30517506739197
C         0.75332220803421    3.16362905801806    6.19813384337928
H         0.43782045397909    3.50207012276587    5.22024003879553
C         1.32602729078683    1.91259457717104    6.34851727545072
H         1.44280410383978    1.27093676923427    5.48749503220857
C         1.75822514681828    1.48739939198030    7.59338400380119
H         2.20719272695863    0.51168215080667    7.70368054753209
C         1.63482516042659    2.32063879072140    8.69512428736048
H         1.99271306314877    1.99754806121471    9.66142014537858
C         1.06867536851393    3.57195329864286    8.55067000081610
H         0.99466736619974    4.24777062883248    9.39503392737986
C         2.31925411679732    7.24347862832840    8.89204007829359
C         3.05608723716570    8.64706677927941    6.86047028329880
C         2.95785181344703    6.03587523134595    6.76831496162154
C         0.62803836709185    8.75973475217009    7.75177095521817

