47
CSD_code = CIMCIL | q = 0 | S = 0 | Stoichiometry = C20H25PRu | MND = 9
Ru        1.17966689331771   -4.37775331116743    3.03361005780100
P         3.09463463869419   -4.06372840149931    1.81557730188389
C        -0.55527335936949   -5.73397726745253    2.87649228818062
C         0.57961852933798   -6.31726989813624    2.24478086454557
C         1.56057888972120   -6.54795627220146    3.24297328472563
C         1.03944956627851   -6.09797233405752    4.47796293181267
C        -0.26769133869525   -5.59409038970506    4.25680813980099
C         3.60282077103795   -2.33541169059842    1.30032659244786
C         2.55959105237855   -1.61460819850316    0.45912773108482
C         3.83010307538865   -1.57382109101748    2.60381906488927
C         3.02920077833134   -5.05519619094622    0.27819651018262
C         2.07597431990629   -4.73582086656487   -0.68696579614138
C         1.92274454172198   -5.52122802124465   -1.81393687837750
C         2.69784472322300   -6.65768699866652   -1.98156200363470
C         3.61372197604369   -7.01021138938441   -1.00538211761886
C         3.77637462973696   -6.21963102845161    0.11892740550250
C         4.71478514076358   -4.58477354758211    2.49696994446158
C         4.82708019629026   -4.98134336138152    3.82232405447242
C         6.05300254771302   -5.35527498371838    4.34598124051264
C         7.18226287285869   -5.33544161125120    3.54625285371297
C         7.08108946697899   -4.94004805936465    2.22141351487602
C         5.85755094859226   -4.56724409444000    1.69826631991004
H        -1.52260185836092   -5.57462319849650    2.41649443962303
H         0.60817266974380   -6.70627749692443    1.23393181332267
H         2.47049573993253   -7.12222491965657    3.11268623715273
H         1.49505725239200   -6.24820969756966    5.44863034080868
H        -0.97052062284081   -5.30154255138120    5.02700320660313
H         4.54377732263217   -2.41410376292323    0.74132042718714
H         2.81420765181708   -0.55807768298827    0.39185318609673
H         1.58402948997699   -1.70455027632736    0.93806948842352
H         2.51293026535167   -2.01284970465085   -0.55103032588484
H         4.14429332636989   -0.55224341919813    2.39843576901629
H         4.59340915476252   -2.05503012609493    3.21382554208539
H         2.89497302639063   -1.55507459818270    3.16718959266274
H         1.43274570940405   -3.88264451618379   -0.53239267573168
H         1.18693978022585   -5.25397534126644   -2.55865863551598
H         2.57548948053511   -7.27486282552291   -2.85950403292062
H         4.20297074781710   -7.90969048484243   -1.11536059296706
H         4.48686024611086   -6.51787126818016    0.87735504725914
H         3.94439538984647   -4.98034193140513    4.44722766102059
H         6.12689033659391   -5.66014482750449    5.37977683318499
H         8.13989725856599   -5.62731048856685    3.95154657372204
H         7.96038215538456   -4.92448150267640    1.59379109619696
H         5.78522132933483   -4.27396096836964    0.65970556096565
H         0.59127205045981   -3.71313771679668    1.79331071761312
H         0.61012751502717   -3.00784566110862    3.44070106104026
H         2.04625372227807   -3.77993602584511    4.14102836400364

