57
CSD_code = CIMFIO | q = 0 | S = 0 | Stoichiometry = C24H30ClNPd | MND = 5
Pd        1.74481770012200    3.14079680384364   10.68692967127673
Cl        1.06187908350612    1.47948803616823    9.33927252486417
N         2.02465555133194    4.35540780449258    8.73620992277585
H         2.77611086155137    5.03538402217545    8.64627020931627
H         2.04965570935982    3.64261988823554    8.00734356398340
C         0.74355453305782    4.94642424022448    8.86398040791829
C        -0.38063261960592    4.33965344216907    8.30427066284728
H        -0.27301081898754    3.39468512063542    7.79090408413648
C        -1.62356146507682    4.93365970662560    8.42146527714487
H        -2.48723972900917    4.44686410336682    7.99505185176563
C        -1.75905882754531    6.15322733756987    9.06493113772075
H        -2.72687519892872    6.62482566363766    9.14155404390506
C        -0.64756882775161    6.76361612189832    9.61651154478132
H        -0.74196849321959    7.70858167266766   10.13267329357490
C         0.60539135155941    6.16622235110649    9.54051314975616
C         1.76879951422766    6.82518839940558   10.17438710649212
C         2.17489107775831    8.06396318823376    9.68868931629166
H         1.64870587951935    8.48818915155699    8.84507053244233
C         3.22819807046118    8.74694210496380   10.26638905805251
H         3.53264914404393    9.70593900331303    9.87479210688326
C         3.87436817530715    8.19983576324609   11.36182424721408
H         4.68148098825849    8.73434896747928   11.84035345812574
C         3.47561335456469    6.97210099889045   11.85560384992392
H         3.95607260214921    6.57054906507803   12.73558691386683
C         2.43907743827786    6.25027627895123   11.26362878056360
C         2.00533626506601    4.97180412383817   11.89508890431562
C         0.63462680841181    5.07676507976325   12.55591594654908
H        -0.13257800515442    5.26565649559921   11.79584578708420
H         0.38544421324636    4.14016557198505   13.06456994195516
C         0.60663120653991    6.21550187169237   13.57829309395060
H         0.78775837924567    7.17567630808806   13.10026436134603
H         1.37023545885227    6.05954204993080   14.33759847019518
H        -0.36351875635545    6.25127956004604   14.06788305292693
C         2.91924799066167    3.99976177339075   12.25091220255352
C         4.37799445841261    4.00938458421217   11.84369909514977
H         4.99427752500119    4.11275618945781   12.74228490873028
H         4.58998793014522    4.85760937928090   11.18707571441332
C         4.75873097536632    2.71112865853223   11.11915110605213
H         4.62440816517681    1.85141624182272   11.77445728996613
H         5.79908035100232    2.74847940804575   10.80177072093096
H         4.12596289561743    2.56754468528238   10.22480335919753
C         2.48942418770477    2.85426012443294   13.12686522644149
C         2.93616772138370    2.74106604241278   14.56031476071322
H         3.21413580524762    3.73379407917253   14.92350239793313
H         2.09345542038182    2.38603550986395   15.15956362116356
C         4.11166780528707    1.78246123274040   14.75301440281515
H         3.85483321240660    0.79193556078357   14.38662837757546
H         4.36127151229851    1.70438050896836   15.80943643433304
H         4.99211943855616    2.13144760203038   14.21893384442894
C         1.67871641799890    2.09259900466709   12.40097923341050
C         0.99162183635536    0.81053184391661   12.72886027365388
H        -0.00000588018524    0.79028268483361   12.26557928093138
H         0.86864581810564    0.73831714397689   13.81625444719771
C         1.79876290924311   -0.38559411943137   12.21592468916494
H         1.93619468911111   -0.29811190990788   11.14003810773044
H         1.27436381092974   -1.31438056138646   12.42739184816659
H         2.77789437901007   -0.42028596397470   12.68949238340538

