94
CSD_code = CIMGIP | q = 0 | S = 0 | Stoichiometry = C31H56NO3Si2Y | MND = 9
Y         3.91756783192669    4.23022394274172    6.09460577597189
Si        2.10164224552563    5.35179968764857    8.84732833645464
Si        6.76948480923011    2.12337669001607    6.42064149987728
O         4.89030645186485    6.03576395784184    5.93190829251967
O         2.86527810590803    2.29228897618988    4.50737597832708
O         4.21831960153600    2.95792031422226    0.63230122175083
N         3.98120624346471    4.60403567911639    3.38064212106031
C         1.38490205867473    5.89142763955326    6.10153244143263
C         0.38718362624778    5.39309931346070    5.29491829521887
C         0.10925151480746    4.04330943733842    5.68478740431767
C         0.93589221618679    3.70588082343696    6.72924092740444
C         1.80920291281862    4.84287001566036    7.03810890307402
C         1.87053254573216    7.31155691114228    6.14039480285455
H         1.64725776961128    7.82807630310953    5.20712879225989
H         2.94439387883315    7.36157587379919    6.31601489282031
H         1.36969955591333    7.85982316539142    6.94062553583535
C        -0.35878085574754    6.11306900608608    4.21295040735705
H        -1.32352122413851    6.46454360583888    4.58343928350228
H        -0.55311749581899    5.45668505368471    3.36398017922102
H         0.19551335400338    6.97949416466903    3.85582052601175
C        -0.94686939437383    3.20310403499706    5.03761300914555
H        -0.93697339510359    2.18663703706562    5.42437125415351
H        -0.81105353255667    3.16181026079486    3.95444575688818
H        -1.93524392080768    3.62465876527929    5.22570028361790
C         0.89696386846153    2.43156281218398    7.52101838084889
H         0.23219871377285    2.54108401562827    8.38025637408445
H         1.88716247659838    2.16393277263756    7.88986944620879
H         0.51826219075032    1.60603819132620    6.92084981807983
C         0.49349951032917    6.10325613285769    9.57573786496849
H         0.16362461269310    6.96550741210082    9.00574173871349
H         0.63354605061921    6.41961354668418   10.60459573969301
H        -0.31441224276347    5.37874871641310    9.55857113331160
C         2.59364157077661    3.90303120620629   10.00832674758315
H         1.77273375381604    3.21686625318910   10.18004990912554
H         2.88591006156032    4.29951593164186   10.97569209266980
H         3.43498458899319    3.33499882114784    9.62103524017718
C         3.52149530176220    6.63008679616785    9.02818948313932
H         3.94589591956119    6.59375683179473   10.02704538202931
H         3.17433760118779    7.64418324209671    8.86263463601388
H         4.32360678523746    6.43309386270064    8.31769237758271
C         5.68842582560973    6.58822437284064    5.04374173118977
C         6.91985160807601    7.15727219386507    5.45019301245370
C         7.74541196397635    7.74667190674217    4.51643632636977
H         8.68491784248585    8.17347775615005    4.84142449857214
C         7.40868919937344    7.80905899266086    3.16689318720624
C         6.20282982098172    7.25792466204848    2.76956851621944
H         5.91625855167829    7.30133515483273    1.72609164804046
C         5.34359784100420    6.65604388965718    3.67751181271625
C         7.28343742437953    7.10272061796877    6.90385748389811
H         8.33987596305497    7.31496891857782    7.04965995382619
H         7.04827695646707    6.11711239572014    7.30795686017294
H         6.69890743401060    7.83396399667276    7.46323544265385
C         8.33482089502905    8.46289098721037    2.18377945848375
H         9.32462982700356    8.00970325768906    2.22979943701223
H         8.44456481297811    9.52326761386773    2.41083490836235
H         7.95545550513046    8.36648437590398    1.16917015524837
C         4.02907448242558    6.07671548374025    3.22928709387356
H         3.83517602267070    6.36727258950763    2.18536697106811
H         3.22498847630719    6.48823657113444    3.84956062083422
C         2.65941990787523    4.12669800728179    2.95679927452324
H         2.47616336528252    4.33006694217736    1.89171367610306
H         1.91121131914491    4.66154151256881    3.55271010108516
C         2.47559604061239    2.62971062937059    3.18226017199890
H         1.41538325204889    2.38027894721867    3.03570419134626
H         3.07032601855298    2.05510619640334    2.45971819718263
C         2.58047180693792    0.93645526622550    4.79650214097672
H         1.50292399950128    0.74832685111347    4.74076724436441
H         2.93765191061039    0.74142830459531    5.80531991097620
H         3.09214096727019    0.27065544667932    4.09183288331612
C         5.08658172855412    3.96689917460951    2.65301202093424
H         5.15236648232622    2.91897099942851    2.95432676673793
H         6.00368460072212    4.47080469322657    2.96827821721131
C         5.03456320823062    4.00453836931055    1.11934442763851
H         4.66086489898272    4.97205325489696    0.75504721674880
H         6.05735649709100    3.87869118632429    0.73312668542886
C         4.18699671577580    2.89431592581476   -0.76966829786595
H         3.78072108099093    3.81746048558176   -1.20186197807420
H         3.54234452537301    2.05784451078383   -1.03140527173318
H         5.18967627579537    2.72711007590401   -1.18154661936630
C         5.27614297053308    2.80941676408947    7.34810513709970
H         5.64947842729359    3.37996368238365    8.21029460318226
H         4.71565702382790    1.96566992435312    7.77171070583209
C         6.19702369543501    0.84882677799761    5.10480705428712
H         5.75975499950807   -0.02732345314110    5.57309661807578
H         7.03207620145197    0.51028350540434    4.49962630552659
H         5.45449930411149    1.27235792933316    4.43564582331352
C         8.04109190445415    1.20434830201979    7.52533965331941
H         8.42885818569460    1.85604795417773    8.30209120128328
H         8.88734315885128    0.84468127714284    6.94801684041615
H         7.59096310828059    0.34651979585063    8.01526738313463
C         7.71962758991331    3.52344419390308    5.52198448137163
H         7.04425935444855    4.28856821572219    5.14462539159025
H         8.29254431238262    3.14469621314334    4.68077587421325
H         8.41841904219827    4.01268919748802    6.19278056421573

