36
CSD_code = CIMHAH | q = 1 | S = 0 | Stoichiometry = C11H18MnO3S3(1+) | MND = 6
Mn        2.48016263803124    1.30074890949794    1.87395990822283
S         4.41448647013616    2.74187287863897    2.25870720552885
S         2.65225308803197    0.66404476575811    4.22594148713338
S         1.10078669121304    3.17588894592027    2.61442732098107
O         2.36276013146511    2.10420094818907   -0.94748112724785
O         0.09531423877884   -0.35065236567009    1.42082128519372
O         4.12729553558734   -0.99322569893247    1.07126562778926
C         4.21033824194861    3.79263285270609    3.75235837200150
C         3.11619443256382    2.08309424114922    5.29726343721694
C         3.32806850263309    4.43961145553174    5.94929857800820
C         1.01623239688176    0.29172825134462    1.61752289533960
C         0.96689130871047    0.31523792818157    4.78823906122304
C         2.40541584753718    1.81307809931954    0.15381465433427
C         1.41155393398464    4.53000620210858    1.45318141031429
C         3.07741309841295    3.51076110936499    4.74387475942547
C         1.70022451885888    3.89580845757921    4.19509611525839
C         5.77323179499100    1.65427420800059    2.75803818375257
C         3.50451079924466   -0.09491502295020    1.39468149166875
H         4.24556588833682    4.16459296763171    6.46336766828140
H         3.41748118468569    5.47382885332120    5.62663893850380
H         2.50891008474693    4.37644010658178    6.66113464598496
H         5.16889255423291    3.73467458351258    4.26730213279956
H         4.09786773037044    4.80545670844104    3.36049665266521
H         2.45609604031251    2.00827466481047    6.16098936068480
H         4.13179149368061    1.85571520596281    5.62724790051136
H         1.65534236781190    4.97418835646523    4.04522657691628
H         0.93604530732720    3.62411808859593    4.92601319221238
H         0.28385241253016    1.11466166600554    4.51481049303154
H         0.67099102817531   -0.61069455963234    4.30125312339139
H         0.98891190177872    0.16506761684978    5.86485924003604
H         2.47595751852210    4.69043325575041    1.30589108586500
H         0.94559017133363    4.23743170664082    0.51546289680397
H         0.92576024421368    5.42549975218580    1.83293870654688
H         5.46682687932383    0.97261085227208    3.54659764418294
H         6.05454653009088    1.09411941412187    1.86969716266777
H         6.60953699350812    2.27328459473292    3.07356191276258

