29
CSD_code = CIMJEQ | q = 0 | S = 0 | Stoichiometry = C11H10IN2O3ReS | MND = 6
Re        3.09439551595965   -0.04559443430559   14.38092813150041
I         3.49117791803672    2.60097100909401   14.98144438231061
O         2.59821126738007   -3.06708322367445   14.03167869664613
S         1.41604350499773   -0.14138662174586   16.34687059752414
N         4.44319327403632   -0.46233807760633   16.13884184788969
N         2.24469139679379    1.32136990613763   18.34994953135674
H         2.98068307547196    1.80361834999834   18.84519787795755
C         4.69440456076542   -0.13071316236767   18.50435171839586
H         4.26236329813531    0.18477275153899   19.44052534900845
O         0.76244783031255    0.81446361235656   12.54243899079154
C         5.67010651381664   -0.99567352341460   16.09973852926231
C         4.36065048859165    0.10793322651883   12.91092377092679
O         5.08034789719181    0.23863403363385   12.02389663112524
C         3.96188986277046   -0.03351812146003   17.32299537524489
C         1.65436279306532    0.46302453003272   13.16324627700654
C         0.91858478291318    1.87718641808628   18.43636035276880
H         0.66218043160533    2.39665109851894   17.50796893875338
H         0.87529396897480    2.57583467171230   19.26605493957961
H         0.19142835029116    1.07809102084380   18.58943950869766
C         2.58379365263943    0.47117879337312   17.38172502216198
C         2.79383908620120   -1.94449971212718   14.14320576660684
C         6.45274997931388   -1.10660015913130   17.24572348848015
H         7.43929316321495   -1.53443707736422   17.17036285617634
C         6.21967659943791   -1.46572450043435   14.79539062755777
H         5.48167209465405   -2.05212794502435   14.24718116475062
H         7.11114670328973   -2.06702093910745   14.95066639087660
H         6.48770503044197   -0.60568361618382   14.18010336779526
C         5.96410581682684   -0.67318699214359   18.46371892629746
H         6.55436114289686   -0.75984131576799   19.36247094256155

