55
CSD_code = CIMLUG | q = 0 | S = 0 | Stoichiometry = C19H30ClIrN2O2 | MND = 4
Ir        2.39905771238489    0.69179569580511    9.52618499489595
Cl        1.69407538467930    2.34706482069414   10.95198675914055
O         0.58412509951997   -1.06965864423660   11.17003955157863
N         3.00618232755587    3.10340546704208    7.86411149131925
C         3.55049984986176    2.28513359714890    8.76925127295594
O         3.45541299904861   -1.24782549897414    7.48254338420820
N         4.70921249580941    2.59834565832206    9.36127965359384
C         3.68118511723973    4.25061730841735    7.27800753829289
H         3.15887005492418    4.52722063220148    6.36281776693918
H         4.68946998533337    3.93993993752632    6.98831338915933
C         3.74654188307174    5.45595340694076    8.21381250887855
H         2.77268231068644    5.94149497316236    8.28114671034389
H         4.45447298463331    6.17786710551369    7.80042898430241
C         4.19439726867031    5.00714602945622    9.60195695871968
H         4.56599472712661    5.86351841074111   10.16642233560070
H         3.34982612773022    4.58814946965167   10.15323680563070
C         5.27872819933445    3.93811008621261    9.50843982264927
H         5.98746185351755    4.16442005505025    8.70405309390884
H         5.84127551491970    3.93935483745042   10.44176244698983
C         1.67752224676328    2.80666653081543    7.33850579404754
H         1.30588397827797    1.93819567080055    7.91075643552723
C         0.68923822282977    3.94727162114563    7.57664602908388
H         0.96801113918420    4.83076911427690    6.99781290326032
H         0.69573295057399    4.20891323870523    8.63623075151625
C        -0.70809389425131    3.49415593045638    7.16138770695236
H        -1.01665376597353    2.65862364635514    7.79291314631958
H        -1.41909021914940    4.30831535538935    7.31362105543469
C        -0.72049858527628    3.05810345185582    5.69896956495468
H        -0.47478492026398    3.91272929017571    5.06346025447874
H        -1.71954270346032    2.71579542337071    5.42380572992228
C         0.29240305817949    1.94148033444796    5.45993881808383
H         0.28803668729023    1.65350320956105    4.40703593786792
H         0.01488147805151    1.06474066616499    6.04872156440576
C         1.69283050908796    2.39596386250033    5.86431520530758
H         2.40877510286701    1.58363234303257    5.72244779561724
H         1.99111523564206    3.22946807659117    5.22450349884659
C         5.39468925402583    1.56760967789272   10.14128147609169
H         4.89608694467290    0.61754407257517    9.90036883553467
C         5.27646221210571    1.75378172750212   11.65687434767415
H         4.22444772675343    1.86729023856868   11.92187599630810
H         5.81023912760865    2.64515668243487   11.99268870861922
C         5.87002197881798    0.53393022061093   12.35480908655352
H         5.79492862745160    0.65680040488994   13.43662047708999
H         5.29870200275687   -0.35475777462357   12.07819168473675
C         7.33093351409193    0.34934385426002   11.95298661195329
H         7.74103756161026   -0.53688762092095   12.44032375231556
H         7.91104387516506    1.21240270155092   12.28906008010048
C         7.46163014329614    0.21113925332264   10.43856735905590
H         8.51308451709955    0.10721910148734   10.16353576975764
H         6.93855216461511   -0.68966000348885   10.11063427468295
C         6.86224259186640    1.42610151759267    9.73327913511162
H         6.93239319369268    1.30216821381509    8.65010499529769
H         7.42866321852339    2.31725322862799   10.01149110167036
C         1.28527189920651   -0.47384789521728   10.48790427151682
C         3.03693103021775   -0.52496871465237    8.28183437520221

