35
CSD_code = CIMLAO | q = -1 | S = 0 | Stoichiometry = C14H14ClN2O3Pt(1-) | MND = 4
Pt        4.50898050462839    1.68668757176187   17.11744253728832
Cl        3.77506998523152    0.48968935236151   18.88061654718683
O         3.50674579027136    1.51621608994696   14.00657479635337
O         5.09304661771319    4.90916953633688   16.95805115648395
O         5.32620010023987    2.75381956040158   15.45925177628090
H         5.15999338995805    3.66405920997817   15.82468543070083
H         4.61452288986296    2.50292241805435   14.81161303345739
N         3.80350508208561    0.26519287010915   15.87496557325098
H         3.57410234320663   -0.63964119044700   16.27447601524381
N         5.12085491535402    3.13801879963617   18.37462229698311
H         5.18736942243774    2.90584249156175   19.36081919720724
C         3.38208406178758    0.44815329261614   14.64204761121066
C         2.69975841348927   -0.70763853591546   13.96159533944570
C         1.66746958883357   -0.44053006075852   13.06897446541223
H         1.39114031428406    0.58932037489539   12.89743798131758
C         1.01543910570431   -1.47137449888459   12.41896717185098
H         0.20660765970786   -1.25412736329958   11.73423159339867
C         1.40051940492830   -2.78350331434240   12.64023876359191
H         0.89494451517566   -3.59205951337835   12.12936256017003
C         2.44118030800483   -3.05698443190937   13.51233625631305
H         2.75160290495550   -4.08005427170991   13.67755448839981
C         3.08582266124757   -2.02684219082763   14.17332885977843
H         3.90496389456402   -2.24931355101752   14.84291530682885
C         5.21755134090268    4.42145434090602   18.10126979753882
C         5.48755967892112    5.35806201594466   19.24776790216079
C         4.93520424926888    6.63373637338689   19.20898024738391
H         4.33346225554803    6.90606646459629   18.35451058239112
C         5.15453601112319    7.52705722194644   20.24051195294866
H         4.71159293057855    8.51341070234485   20.20620501649884
C         5.94510064396823    7.16116918404724   21.31755783841842
H         6.12103717162980    7.85930538242986   22.12501756152667
C         6.51673434822100    5.90013256964614   21.35382763929511
H         7.14497163129630    5.61656257122325   22.18762215817282
C         6.28789258493729    5.00103494019038   20.32772282373369
H         6.74923327998295    4.02378558818813   20.35939772180666

