38
CSD_code = CIMMOB | q = 0 | S = 0 | Stoichiometry = C17H15Cl2N3Ni | MND = 5
Ni       -1.15836378288255    1.37052311762766    2.41249369483351
Cl       -3.01304431354158    1.41483678183181    3.53247772675359
Cl        0.67302857679216    2.12372514492021    1.54445746525423
N        -0.18307484850133    0.70145184535166    3.87390806352824
N        -1.06140793016465   -0.63701023526947    1.77603390625509
N        -2.04362822683865    1.54058407556917    0.73707712129555
C        -0.06804542933275    2.87502715224862    4.88743943980388
H        -1.09069460680643    3.01774813383426    4.52178965806572
H         0.60475612279794    3.38557096568236    4.19503359741980
H         0.03747086591615    3.31089750454474    5.87673058934196
C         0.25694294597475    1.42286845678276    4.88580065977259
C         1.02687269550162    0.84081811702477    5.91248300809197
H         1.36959427849119    1.46661789346111    6.72163682443634
C         1.32001436668311   -0.49231894158100    5.87920555525555
H         1.89913552775799   -0.95814419437610    6.66297734678846
C         0.86446507228866   -1.27585570045350    4.79716573066689
C         1.11099945793194   -2.65917949405818    4.68022976659546
H         1.67497596988609   -3.15042022753542    5.45879901264471
C         0.63760158952056   -3.36779482720912    3.60622740776624
H         0.82318195780455   -4.42906002705325    3.53548407101571
C        -0.07281493050233   -2.73374662635528    2.58482193654668
H        -0.45007652348723   -3.30364726048773    1.74898060714443
C        -0.32496032474873   -1.37615758611799    2.65413200979657
C         0.11666706205792   -0.62236932176739    3.79037484390738
C        -1.21432710823886   -0.67770047059463    0.50908328632874
H        -0.74038467815658   -1.39661792849262   -0.16072239436503
C        -1.97594212877593    0.43612174256328   -0.04285820687643
C        -2.55239253116905    0.41224450622009   -1.30794527976794
H        -2.47715793268191   -0.47884754292783   -1.91101275503959
C        -3.22201040421309    1.53526070851860   -1.76152821180362
H        -3.68387377364557    1.54090867254284   -2.73717111466883
C        -3.28045850986709    2.65329601608180   -0.94897699885125
H        -3.78116999024878    3.55023093771503   -1.27735905103557
C        -2.67167780223965    2.62907816539896    0.30459516369421
C        -2.68256501795746    3.80731964567436    1.21446187750187
H        -1.70880298158271    3.88580849489804    1.71042294566385
H        -3.43265858003238    3.64905613727097    1.99166406968692
H        -2.90307413378792    4.72667616851746    0.67978662655251

