37
CSD_code = CIMMIX | q = 0 | S = 0 | Stoichiometry = C14H17CoO5 | MND = 8
Co        0.89273103706154    2.86251900476596    2.32724641758278
O         2.85052000960395    5.31481337519572    3.67828897293050
O         2.71755405126948    4.01800620419390    5.51142114898220
O        -1.97051096770270    3.97865589779050    4.04314917870897
O        -1.92352106032587    5.36325941543442    2.27979699561147
O         3.14363767227863    4.05388591445993    0.97297389565913
C         1.27345473351297    0.90373861588018    1.73631245185567
H         2.19330279881909    0.42364634087694    1.43853754370154
C         0.68171672585595    0.84961016313026    3.01014562069999
H         1.07801910066054    0.35094059749471    3.87937445323304
C        -0.58115397172666    1.48397560819766    2.91514267296676
H        -1.31128797920780    1.54909120318349    3.70640929385939
C        -0.82514027917484    1.82444045601117    1.56133151911526
H        -1.75654210784970    2.18789674291979    1.15985278658862
C         0.33156140604080    1.51204188965432    0.83158060837649
H         0.44300292699816    1.55253298503888   -0.24100688086378
C         0.12820091625528    4.58022877922673    3.04798227223834
H         0.51440816405112    5.47141311761488    2.55746983034612
C         0.93115956302253    3.93521911631414    4.02388784799111
H         0.44203012371511    3.42575010572353    4.85071364137081
C         2.25628353165337    4.50413809414395    4.35241863142493
C         3.98515412170003    4.50213399051676    5.95701343694690
H         4.64751443279990    4.60488862464237    5.09100263821318
H         4.36333252402831    3.72865671098767    6.62890156943517
C         3.85103449037928    5.83742913716880    6.67526164478228
H         4.82030560267947    6.14596912199312    7.05610129818756
H         3.15321236139891    5.74993103663729    7.50439129834567
H         3.48647120532447    6.59244266264302    5.98343668282613
C        -1.34581513574735    4.57180135051840    3.19412562501729
C        -3.34595803765846    5.46451887129108    2.33835446592229
H        -3.62970729727759    5.90766570459441    3.29993620586113
H        -3.77610914452328    4.45695677200009    2.29343788208651
C        -3.81441240322376    6.31932750163592    1.17626343249911
H        -4.89672433456991    6.40724343811920    1.19977759211019
H        -3.51314421370977    5.86864868596067    0.23451186678147
H        -3.37437979864861    7.31045563591518    1.24143114035894
C         2.25399923223742    3.62852712812568    1.54582431824605

