87
CSD_code = CIMPAS | q = 0 | S = 0 | Stoichiometry = C35H46Cl2N2ORu | MND = 5
Ru        7.22226534786830    3.37246590963831   25.86575440260405
Cl        8.55846565915354    1.67189986004770   25.01787808910430
Cl        5.71561793401884    4.40513025330554   27.32972969590419
N         9.63407613506851    5.18821327837013   25.34756988208263
N         9.75820492622505    4.17296230882314   27.24600023419161
O         5.39962711632430    2.07197142716604   25.22707782283722
C         6.57804798770771    4.29498374627511   24.33823256170812
H         6.96205568324902    5.22304505439767   23.91786890536632
C         5.41732296446956    3.81713900709245   23.68181237259140
C         4.85660325149661    4.47836855411778   22.57616253844178
H         5.34022367451277    5.37556064731238   22.21723917428930
C         3.72152978889718    3.99665417711587   21.96420790128607
H         3.30022454948645    4.51312497928733   21.11507972142117
C         3.11598908761643    2.84460197451040   22.44486772847032
H         2.22176732407937    2.46651563698538   21.97251820846713
C         3.64422919242470    2.16145407623091   23.52989411350089
H         3.14105698125035    1.27121363708347   23.87297882593742
C         4.79105995422724    2.63223269004759   24.15177859296747
C         4.97965139343382    0.78707226241261   25.68574171185693
H         3.88345237335926    0.78757581829603   25.77357801884041
C         5.45600400920457   -0.29653015261656   24.72050526051573
H         5.01177654323277   -0.17291601166073   23.73556710972737
H         5.19367113148972   -1.27818111268506   25.10556520505703
H         6.53813538426945   -0.23090177483370   24.61835160881789
C         5.58636240892446    0.59223334604755   27.06787913754565
H         6.66654672077106    0.48578163063366   26.97446867259697
H         5.18643184321154   -0.30683080863382   27.52932483018705
H         5.34599786678261    1.44647350871424   27.70136433800308
C         8.92091199130629    4.41893048157692   26.20045476971625
C        10.89389363000761    5.41189328003922   25.84236447065899
H        11.61268466720835    6.00011128061653   25.31026007871547
C        10.96904577548609    4.77952142857431   27.03010200902852
H        11.79200205304149    4.71808575645822   27.70800086932627
C         9.21483856368937    5.88272779983962   24.17785538335065
C         8.67275417448239    7.16378421039605   24.33340576629165
C         8.29966635025512    7.85674844270904   23.18960621342648
H         7.85448862392166    8.83494763782825   23.27873604973861
C         8.49322603251401    7.31082140949161   21.93453540132956
H         8.20165126678809    7.86701473746469   21.05560529916107
C         9.06059855141841    6.05884994489231   21.80137709442439
H         9.21457903493386    5.64735850583766   20.81614585979438
C         9.42861433351517    5.31957752690873   22.91880182578234
C         8.44749523805582    7.76598490188438   25.69990947833763
H         9.01909514018212    7.19930781808312   26.44042637753340
C         8.91900811703111    9.22014170093857   25.76912017330761
H         9.93964619144893    9.31129583017961   25.40259800790335
H         8.89007673643908    9.56577328429351   26.79996750104683
H         8.28034330386088    9.87269475967880   25.18027761544583
C         6.96631357373743    7.65247050016109   26.06757441721832
H         6.34719886854746    8.15806477666639   25.33027030829577
H         6.78549690721000    8.10153706717440   27.04110228551041
H         6.67070004429695    6.60560936928938   26.11146710765160
C        10.02066816617242    3.94243930794118   22.75666528168956
H        10.15712225079577    3.49438369435777   23.74456250861323
C         9.06284724578166    3.03884363571492   21.97864534342421
H         8.09686864507198    3.01115845464035   22.48155691330313
H         9.45853344551249    2.02696741633226   21.94593377271868
H         8.91775301483149    3.38986657687315   20.96000208408410
C        11.38568312393644    4.02218323475181   22.06990437492716
H        11.29381264243101    4.44116527930457   21.07054421565922
H        11.81785257162433    3.02790998671276   21.98785313107172
H        12.06732732299578    4.64815073632928   22.64276834700899
C         9.36988043848917    3.55377699234607   28.51606853755035
C         8.50532831000212    2.32160546896234   28.24939623334928
H         9.08790841708114    1.58568445746097   27.68494540001845
H         7.61850514390823    2.61746020394164   27.64756126497324
C         8.03363533674647    1.71961338772155   29.57049204123431
H         7.39772763554412    0.85123020805510   29.36853677634528
C         9.25533895426618    1.27372362052284   30.37225304216017
H         9.81382301964066    0.51906963063201   29.81347166484189
H         8.93894981596853    0.82598742822094   31.31638736857915
C        10.14023387233089    2.48645650296897   30.64406928304650
H        11.02634444852428    2.17451360785671   31.20850134870249
C        10.59618292979757    3.11623551922076   29.32509478440669
H        11.22352095927707    3.97680267892119   29.56412407894519
H        11.18768852598336    2.40097530274609   28.74861171141288
C         8.58182394645744    4.58943174565069   29.33023836225129
H         7.70905216673054    4.91536801939109   28.75897114312005
H         9.21440298636136    5.46158593266613   29.51741638683283
C         8.13427628491899    3.96487463742843   30.65038471668317
H         7.56930368398569    4.70807743233358   31.22165330871755
C         9.35551230662493    3.51872067802260   31.45297927322460
H         9.03833223901666    3.08127711898659   32.40167591784931
H         9.99015692139443    4.37917083844355   31.67816143204928
C         7.23995004013361    2.76230322978556   30.35600009389672
H         6.87703821648983    2.32736404245359   31.28952199794604
H         6.37648857003642    3.09055661863590   29.77428683183350

