74
CSD_code = CIMPUJ | q = 0 | S = 0 | Stoichiometry = C40H30MnO2P | MND = 8
Mn        6.53402125796420    7.11470791962058   11.49200689361514
P         5.36055089434224   10.17489983088751   10.17384817393935
O         5.00625900392784    6.43147799056694    9.09442118156807
O         4.18411519359596    6.66766241818809   13.16735645139834
C         6.21748289765760    9.21989718503574   11.44907129048932
C         6.61311503312298   10.00343844784741   12.41166807345859
C         6.94396184734051   10.76581326289645   13.44112779876275
C         5.59813289287597    6.74925719778419   10.04991561157929
C         5.10293763756231    6.87460979263989   12.48604009392399
C         8.31994169364702    7.31740296127909   12.69546642573839
C         7.73994218390718    6.06313678852325   12.95053975069592
C         7.71844343316254    5.33208832223339   11.73833010700696
C         8.32547230042494    6.13349360489010   10.74115760186034
C         8.68183232379255    7.36175897116850   11.32741600739211
C         4.89301533428686   11.79678875831365   10.80232671972127
C         3.56650383697997   12.12572714646212   11.05948928784061
C         3.27207136388612   13.31929232846579   11.69324273655168
C         4.29305694739402   14.17197228417426   12.08365549903288
C         5.61502505405474   13.84419570629357   11.82633924089851
C         5.92038739693020   12.65707992338076   11.18830316996918
C         6.43976292730317   10.41222255321707    8.74779328840987
C         7.19419138067430    9.32500362210724    8.31699020361149
C         8.02368488122444    9.46000554219198    7.21973302670412
C         8.09854179428864   10.67278873814294    6.55118515178434
C         7.34093791732517   11.75252839657774    6.97717441214945
C         6.50773011665708   11.62836287529820    8.07463494079255
C         3.89074816624947    9.28676547145094    9.63271063915739
C         3.13766382414521    8.64448991327533   10.61343857627860
C         2.02237419869256    7.91738000639819   10.24455089711910
C         1.66330560635456    7.83206417171875    8.90786357433079
C         2.40933525275659    8.48072124008408    7.93716124743061
C         3.52798532211284    9.21213893442587    8.29335340524792
C         8.18777952265701   11.54294097633118   13.44075242613028
C         9.27663617759775   11.14008112094043   12.66692026925900
C        10.43314746309196   11.89334381875942   12.62581960272074
C        10.52274381543225   13.07167934817092   13.34917073989580
C         9.43988925920838   13.49444733024191   14.10253763787591
C         8.28156149791953   12.74210946202870   14.14747639408828
C         6.01397401701590   10.83675574388711   14.58245427874640
C         4.63928820145967   10.75070152160716   14.37510880476443
C         3.76364846984635   10.79178672459063   15.44211282762142
C         4.24660364398632   10.91093768014597   16.73512224346063
C         5.61247167588333   10.97702182269092   16.95288625730374
C         6.49201726702429   10.93811656118093   15.88699851583514
H         8.59517908290918    8.04667226950982   13.44699678843044
H         7.47299825804265    5.67609057865598   13.92534033622394
H         7.46920962213582    4.28299411710640   11.63756327003932
H         8.59021229605998    5.80481861591181    9.74362274566517
H         9.28477241501662    8.12958520555313   10.85430960608346
H         2.77878800581263   11.44652464206395   10.76364215305428
H         2.24381449487583   13.58110139419841   11.89285152287566
H         4.05684172960159   15.09545927746341   12.59053596269840
H         6.41022159007656   14.50781210319296   12.13152321971985
H         6.94789881266477   12.39301649366332   10.97805231014336
H         7.11438485488437    8.38651556979683    8.85355426669956
H         8.61135539969226    8.61954838428492    6.88167091919590
H         8.74677311405480   10.77660888463294    5.69377955843583
H         7.39825262165664   12.69430228491305    6.45148069966399
H         5.91165685054343   12.46630412457882    8.40949178742816
H         3.44612604503901    8.71220988222635   11.64937744650008
H         1.44397663103936    7.40548133825548   10.99794028267463
H         0.80118940084203    7.24937805437633    8.61992648855857
H         2.12643964001981    8.40577882352376    6.89783579433328
H         4.12560726437797    9.70921874271516    7.54176525281035
H         9.20568723329467   10.22459627780876   12.09843317989121
H        11.27047242437472   11.56120755930318   12.02842092080822
H        11.42860354621552   13.65913157479705   13.32101920490441
H         9.49784989412754   14.42004150296533   14.65763536018369
H         7.43447751004636   13.09045194240146   14.72086897013102
H         4.26416488270940   10.65322565021847   13.36550342186468
H         2.69983018895908   10.72762995771585   15.26532401159287
H         3.56226961299080   10.94304181762492   17.57006324136729
H         5.99649368251600   11.05334573881836   17.96014389318722
H         7.55736196967322   10.96921277560309   16.06745590866151

