48
CSD_code = CIMVUS | q = 0 | S = 0 | Stoichiometry = C13H28Cl2N4Zn | MND = 4
Zn        6.17191401898966    5.58137747971150    7.26408422439450
Cl        7.67096701429350    6.40973188716950    5.83931521474910
H         5.10304182414358    7.20141517850153    8.97866799151952
H         5.05584581493690    8.01542650398673    7.56012387096143
C         3.46480671544236    4.92988249654393    6.24842993207751
H         2.87621536464759    4.48173204873687    5.44264790814416
C         3.02368061997174    4.34707622150177    7.60356810998908
H         1.98490082192432    4.02293670959515    7.54075522594193
H         3.63053790562383    3.47983834159931    7.85619808606887
C         3.19070233499420    5.46451945173470    8.63800574053170
H         4.03439113419688    5.24829117595209    9.29125779410261
H         2.30148080152601    5.55403149935098    9.26083328975769
C         3.44932595268755    6.77205942079337    7.86621931910097
C         3.12719197168025    6.44084264534303    6.37952253248664
C         5.24790151365220    3.83874278518066    5.07408787265621
N         4.86541538573023    4.60824393205749    6.05212589956819
N         4.47190493271660    3.56169253716725    3.96901287811013
C         3.91543229512302    4.59599634480639    3.13147751562012
H         4.35348787065038    4.53874333434856    2.12840919166102
H         4.14917530353787    5.56693984172679    3.55210918346760
H         2.83078620680660    4.48605168040691    3.03352960120814
C         4.48311830350235    2.24921759200725    3.36706300151748
H         3.45170996571907    1.96926086978253    3.13529744079772
H         4.89144911224012    1.52630623801841    4.06769637830526
H         5.06040560209829    2.21390245177531    2.43691929009655
C         1.62543708845830    6.59708241288591    6.10281685842290
H         1.33942195464172    7.64506796530902    6.12085411198123
H         1.02686683416509    6.05808117113675    6.83067186717089
H         1.39110033679874    6.20672804925934    5.11457243620422
C         3.87738334679505    7.35323027195493    5.40787010491106
H         3.43529859791129    7.28758820080324    4.41625299370595
H         4.93207776363350    7.09995941561631    5.33719404302470
H         3.78718035134605    8.39173206973064    5.72290003071821
C         2.63968839558542    7.93752893908954    8.44441539643922
H         2.77859251893528    8.84165887018580    7.85368642039300
H         2.97580819747456    8.13935773044928    9.46056676219001
H         1.57916929282473    7.71208410590301    8.48417835693074
N         4.88068195599309    7.10793495443184    7.98802977772549
N         6.41669360222300    3.15407591825196    5.13546164135767
C         7.30483420034449    3.12475033719411    3.99247374048469
H         6.82965828936626    3.57252112269497    3.12515613315055
H         7.60101867127713    2.09865194156179    3.76106634990595
H         8.19986100026569    3.70981240640357    4.22086000674947
C         7.06774271245338    2.80832743428147    6.37639084586502
H         7.53571031885415    1.82877950586462    6.24981912179408
H         6.33740635234700    2.74705953375235    7.17963133625958
H         7.84899358038516    3.52354005572593    6.65273327099961
Cl        6.68348585108661    4.69238891971581    9.24754090078185

