43
CSD_code = CIMWON | q = 0 | S = 0 | Stoichiometry = C16H21CoO5 | MND = 8
Co        5.86686708678887    1.90952209715335   11.31267096496556
O         3.99529591378996    3.82751598346373   12.37636253727623
O         8.98411389212820    3.77507832273157   10.19519597048956
O         9.34560567325064    1.65073562072412   10.83427217494598
O         6.79187946320870    1.44376987759041   15.01477130861827
O         6.25202258673127    3.50766189933671   14.30300462279892
C         4.44101520312479    0.56529815158925   10.60258834247737
H         3.42539199722320    0.38216179895085   10.91898518259720
C         5.57375414238185   -0.18059798222929   10.96910912353685
H         5.59630998529699   -1.02040287296585   11.64407742383900
C         6.66542483704938    0.30756340153342   10.20927272243346
H         7.66237488742659   -0.10405322809244   10.21289219829267
C         6.19022583602436    1.27356185010616    9.28834277751785
H         6.75577105281152    1.71559544522914    8.48507615048296
C         4.82664595348705    1.47433219349364    9.55395688951959
H         4.14208196108405    2.06938571790143    8.96917317541850
C         4.78181906610791    3.09636106984038   11.99141997074594
C         8.70059805004919    2.67245605476135   10.89672089560875
C         7.54783944309629    2.90877130047965   11.79917053699661
H         7.37909923510804    3.96012227183775   12.02361488704949
C         7.22694179360143    1.94221555737353   12.78655623247550
H         7.81397985015980    1.02799557017813   12.83456865324559
C         6.69275049081229    2.39985554701754   14.08916724086047
C        10.11336973327334    3.72562441429905    9.30927088741276
H        10.88347005694764    3.10098445806695    9.78130871802449
C         9.70070901128604    3.09903671092947    7.98096374830872
H         9.38041393273875    2.07195342607999    8.13930569123262
H        10.54309941283194    3.09907012788731    7.29513429188501
H         8.88322572533083    3.66658798363679    7.54135230673772
C        10.61108346637218    5.15359898612303    9.14230618742264
H        10.86135053901478    5.57898860605513   10.11043382629507
H         9.83669128490906    5.76395466558635    8.68521585019789
H        11.49481914280732    5.16508559784593    8.51095823137205
C         6.29737192788827    1.74587142075623   16.33099572170493
H         6.51811363970555    2.80131398369763   16.53678247701362
C         7.03861525531488    0.84197893424104   17.30462302374615
H         8.11014099722797    1.00706905108172   17.23078986808939
H         6.83074490256171   -0.19957711245982   17.07389367719848
H         6.71685723858280    1.05339411171085   18.32003666538843
C         4.78847127539172    1.52822821018303   16.36889817627273
H         4.30196282373227    2.18993839598404   15.65624020390208
H         4.40954811531957    1.74364576143020   17.36357986857355
H         4.55453311802078    0.49744661886266   16.11224059702665

