33
CSD_code = CIMWAW | q = 0 | S = 0 | Stoichiometry = C11H15Cl4MoNO | MND = 6
Mo        8.92262406833834    6.42069856523403    4.24098236675018
Cl        7.48338788492107    5.06820936727071    5.46267962844137
Cl       10.09434427217239    4.50348876753632    3.61156524984326
Cl        8.08348802807343    8.27610148199228    5.38070735667150
Cl       10.76713292570385    7.69449183681110    3.63656314332310
N         7.97968851779383    6.59395603649095    2.79557845980550
C         7.25255981367573    6.72590964080890    1.69552664608846
C         5.86223799316844    6.51145619871320    1.72774581948800
C         5.11659395979010    6.65409266720930    0.58111444622688
C         5.71154951305171    7.00697294314965   -0.62947261257646
C         7.08740351403158    7.21629948436790   -0.65947289539092
C         7.85427092311832    7.08340675362778    0.47624142249620
C         4.88160630045253    7.13860742566266   -1.86697619138079
O        10.16791997182352    6.18851560178853    6.15241112540418
C         9.71850227652498    6.51030295968442    7.47487485873169
C        10.73786414860685    5.89413947797075    8.42623685158313
C        12.02135585117263    6.01427502536222    7.61025463267976
C        11.51535101862238    5.70174702634122    6.20639527722772
H         5.40930936091446    6.23947136751269    2.67073350030119
H         4.04945598555011    6.48979713998053    0.61707684378131
H         7.56297639681133    7.48941406965262   -1.59032490637581
H         8.92278801259213    7.24512832492386    0.46151279649885
H         3.97540613263632    7.70532060663547   -1.66261549340677
H         5.43688537611661    7.63316053907207   -2.65946179049502
H         4.58240767417793    6.15201004037428   -2.22148603814046
H         9.69233302140777    7.60379749001591    7.57619485269405
H         8.70741695393286    6.11161904516583    7.60605199297086
H        10.78089647707161    6.42105167842763    9.37565107320528
H        10.50127110496670    4.84573888010916    8.61027816312776
H        12.40743294770270    7.03292158143585    7.65774308456288
H        12.79875370999482    5.32407377809480    7.92713781068781
H        11.50003002778107    4.61887387408543    6.02277798850992
H        12.09575583728958    6.19285032449458    5.41847453667425

