46
CSD_code = CIMWAZ | q = 0 | S = 0 | Stoichiometry = C13H26Cl2N4Zn | MND = 4
C         6.42215376451264    0.60337175652165    3.61809856652470
H         6.10258435456836    0.08477778842786    2.70966212443594
H         6.38014656766796   -0.10407951536903    4.45326600777300
Zn        6.76517637546250    5.74418438646075    3.33250618002643
Cl        7.27509834015606    5.13111653597079    1.24694955869477
C         6.26254562785831    2.90407157876217    3.93073415630158
Cl        8.06145263030583    6.96357660447554    4.66939175747762
C         7.80583496740661    1.22964363328544    3.45686966942294
H         8.54581021280971    0.78343301602603    4.12820315882260
H         8.18367145583979    1.15761795501387    2.42943234168989
H         5.39705306280117    7.97146421616807    3.33653120514685
H         4.76468406866309    7.02062817858383    2.16561159781996
C         4.58435327183732    4.44485792872012    4.74863148022414
H         4.13585718825245    3.52918450647511    5.14487807495218
C         4.85490936803183    5.40735239948092    5.92443379431162
H         4.28797354191129    5.09416969206805    6.80060182215711
H         5.91187110447001    5.37722577681241    6.18039356738643
C         3.56712735443701    5.20845493246986    3.84761556398039
N         5.85595120234952    4.12266964371219    4.13072966382807
C         4.44313983474573    6.81390133079898    5.47838361268280
H         5.28731323678019    7.49835545391654    5.54381888514023
H         3.64790824113393    7.20450602615537    6.11278895521072
C         3.95516006060676    6.70468188318824    4.02636424997091
C         4.20772972723754    1.55581373586455    3.36174990385985
H         4.22065675037190    1.51083731425540    2.26594408384111
H         3.55038584039433    2.35676790592195    3.67064361954800
H         3.81251089937294    0.61410456931457    3.74659315462762
C         2.82363826115789    7.69662538966315    3.73679826991622
H         2.43890748155730    7.56809260227478    2.72643447794474
H         3.20394273278701    8.71301798429646    3.82954256358742
H         2.00075609713641    7.58636260214226    4.43530989449386
N         5.53771653437815    1.73019319477821    3.89516283009840
N         7.57312570879964    2.60727057980276    3.81666566576470
C         8.70073914383333    3.46933984247344    4.03465793429824
H         9.07153235539100    3.89158721507680    3.09646531547308
H         9.50065134005212    2.88502454740784    4.49318647279566
H         8.43281468529871    4.27785793327558    4.71316947131031
C         3.57937408830863    4.79021462008540    2.37588877947113
H         3.07241722484022    5.53906159154465    1.76958834439180
H         3.04210658006756    3.85626823966712    2.23643441666834
H         4.59009199909307    4.65991668064535    1.99891404945080
N         5.08363613760089    7.02289623660529    3.13315527253825
C         2.16438402583009    4.95390245070132    4.41549359199686
H         1.95066090623154    3.88656050110703    4.42882653877508
H         1.40741865664826    5.43134220537088    3.79939222994759
H         2.07802699100337    5.32517634960261    5.43248712522094

