29
CSD_code = CIMXUS | q = 0 | S = 0 | Stoichiometry = C11H14BMnO2 | MND = 8
Mn        4.12437825430771    2.64397698247283    5.05709828579892
B         4.84539368988186    2.64372123935521    6.76123670508285
O         2.50596782559968    0.45746204048189    6.13512327981508
C         3.14484127523809    1.33519206972782    5.73748668086714
C         4.17830666082459    1.50410539521351    3.27583388397028
H         3.88777648116389    0.48288889661711    3.06406321000594
C         5.48901359236365    1.93718548259933    3.59030827209060
H         6.36706278471623    1.30517153682525    3.63617166922756
C         3.37218634751879    2.64388985185770    3.09118136097259
H         2.35367733835224    2.64383581667612    2.73018248918911
C         4.98774686562655    2.64378881651163    8.32267778071061
C         5.71640617838201    1.39252633349751    8.84060482692567
H         5.73272951704526    1.39209041561494    9.92860612880476
H         6.74013031079650    1.37021770955825    8.47819861076115
H         5.21041955559181    0.49431848959423    8.49806610261209
C         3.55007235671409    2.64365056483409    8.88578758196207
H         3.58154152956031    2.64385252483502    9.97339773149946
H         3.00923420221233    1.76270821782795    8.54969599399463
H         3.00893716311227    3.52428800936046    8.54936557507532
O         2.50747574327367    4.83146864524535    6.13542839263413
C         3.14545004940037    3.95325103648639    5.73744572901403
C         4.17820469994228    3.78375094903082    3.27575857259850
H         3.88758670051790    4.80493127486376    3.06394586329122
C         5.48894445096933    3.35080720144174    3.59029347244255
H         6.36693787016850    3.98290308503512    3.63613452768293
C         5.71602580063835    3.89542519215201    8.84025692997560
H         5.73231472308304    3.89619430787411    9.92825747078004
H         6.73975292517810    3.91792016626178    8.47787045550263
H         5.20978510782069    4.79337774814775    8.49742241671261

