79
CSD_code = CIMZOP | q = 0 | S = 0 | Stoichiometry = C37H30N2O7P2Ru | MND = 6
Ru        4.39973540653670    5.47187307346062    3.67874166878904
P         3.74243886264826    4.49469006493306    5.68096945717820
P         2.53698628998337    5.24249060004797    2.33890933435856
O         3.66592186279700    8.30609056889184    4.24723539037231
O         5.55567615148812    5.83799552853444    1.96987805050704
O         5.16953255318704    3.84975945348877    2.58644259541147
O         6.49092807962384    4.21070220490250    0.94647924391485
O         6.35732840418258    5.41217894718112    4.55127681251111
O         6.15795943983364    7.50368644943415    4.94795172099388
O         7.92012786012035    6.44684529262184    5.54474604346807
N         5.77520530451377    4.62207447722624    1.81454929476315
N         6.83586127749113    6.48896614352906    5.02573090827037
C         4.80777019549042    5.13441308314606    7.01009229115718
C         4.67620803743311    6.49240522249605    7.30349814719450
H         3.93029305211391    7.07743440641210    6.77877893606710
C         5.50311540152138    7.08353729912863    8.23854622882813
H         5.40953604314837    8.13818745069985    8.44688447184397
C         6.46835723616978    6.32592106957899    8.88426033959028
H         7.13123192339117    6.79197871227132    9.59713809920771
C         6.59009866625076    4.97513992126047    8.60766662936684
H         7.34284349521348    4.38597656446401    9.10960413694276
C         5.76279398729399    4.37392011106705    7.67396179442244
H         5.86868731098134    3.32099603597701    7.45557358889860
C         2.08774926000121    4.55169660432246    6.44478594437571
C         1.91006043062139    4.74361674934144    7.81075375732033
H         2.76633083165178    4.89154531063548    8.45220825720911
C         0.63395913711345    4.74619529141886    8.34710607492325
H         0.50139561259629    4.89917831690014    9.40783595159754
C        -0.46925366259240    4.55293774748001    7.53212700397058
H        -1.46202412525272    4.55867546235629    7.95653288782928
C        -0.29671557238226    4.35028784034522    6.17194141253523
H        -1.15143805711535    4.19439318627373    5.53056851407695
C         0.97561286860611    4.34958885827865    5.63300036240355
H         1.12235327581251    4.19047019186297    4.57320710532706
C         4.10305734369741    2.71753582369894    5.59613526995986
C         3.16950150095654    1.73483123004345    5.90659648007856
H         2.18604137439110    2.01088385381761    6.25863120448240
C         3.50424773675707    0.39980954960243    5.75932269382546
H         2.77767086641656   -0.36211903514919    6.00175275815500
C         4.76079417144326    0.04024330145644    5.30087405723495
H         5.01382561066302   -1.00314012666917    5.18245173091688
C         5.69397725463025    1.01820448193046    4.99192521600713
H         6.67318600487602    0.73865851729523    4.63300490594293
C         5.36904969703268    2.35370576699307    5.13553976805226
H         6.09120443041592    3.12248077819120    4.89045884873645
C         1.66030933954857    3.63940075780911    2.30433839336025
C         0.31544292757270    3.55119367458218    1.95477663513353
H        -0.23993306564748    4.44498937076491    1.71008182281609
C        -0.31136100628989    2.31846237097116    1.93273977518406
H        -1.35476426885159    2.25488079210882    1.66093098411534
C         0.39228146401192    1.16972236027377    2.25783643441157
H        -0.10358896291302    0.21067887835550    2.24055476280376
C         1.73072200640623    1.25357090489547    2.60398283904669
H         2.28537629907835    0.36259372129017    2.85761891006040
C         2.36473813216000    2.48254690766993    2.62895602696215
H         3.40983815309034    2.54524963001793    2.89634015248412
C         3.08086373753381    5.42834574434588    0.61306158011571
C         3.19723701521900    4.35508110960409   -0.26240869573561
H         2.88372187663638    3.36632010840663    0.04459891290530
C         3.72688540132026    4.55765632394082   -1.52617721844940
H         3.82335151736736    3.72265330575770   -2.20378953636145
C         4.14608984285953    5.81882633256963   -1.91229559327729
H         4.56937999370700    5.96763908092487   -2.89417562075554
C         4.03999670404877    6.88925641033919   -1.03567068537723
H         4.38250046666997    7.86902945060098   -1.33230909838504
C         3.51560607911784    6.69733281113326    0.22658960723275
H         3.45281202562421    7.51570324912542    0.93461294728779
C         1.19728931436278    6.46750215325925    2.46297325159990
C         0.47163702157322    6.87374265639232    1.34588496440570
H         0.71472825620895    6.47608049012037    0.36985779724000
C        -0.55161867024566    7.79406910764827    1.48418197810323
H        -1.10828552183224    8.11016429038463    0.61428107770978
C        -0.85997746738785    8.31131589627257    2.73202185486598
H        -1.65710746915308    9.03232564366019    2.83404829071199
C        -0.14068297888002    7.90930114798469    3.84579622581516
H        -0.37483269823506    8.31481006698830    4.81844756542380
C         0.88634644012888    6.99302147082538    3.71289392596416
H         1.46252549185661    6.68144203743359    4.57533871709574
C         4.00624977162351    7.22014936234083    4.17550562646619

