91
CSD_code = CINBUY | q = 0 | S = 0 | Stoichiometry = C38H42N8S2Zn | MND = 6
Zn        4.84123766945810    3.08055071981924    4.62177436455778
S         3.29970517538705    1.70605020662086    3.21423050116662
S         5.98614423925815    4.53972166731583    2.92193997435828
N         0.75067623060111    2.37100139286960    3.15119144262888
H         0.01441951795264    3.00890764665874    3.41917690371652
N         1.92113716507017    3.58085368226449    4.61939923455336
N         3.06490616646321    3.97652919992735    5.13774429903531
N         5.43975497784406    4.48115057731341    6.20925496872345
N         8.26755233365346    3.75737581928443    1.95317006566617
H         8.12591966759179    4.58268102632324    1.39114303089614
N         7.58673939778276    2.47131227259499    3.68155957990330
N         6.66733949321209    2.14333532389801    4.56680805109696
N         4.70450467927150    1.57149810146767    6.23734948501799
C         0.66095860850952    2.17019655734600    0.70636486867064
H        -0.02695006997298    3.01807006451187    0.65308280829511
H         1.68014877822994    2.55155883056511    0.63207264407060
C         0.37474760541931    1.19900021383523   -0.43344865318020
H         1.10374731628458    0.38698303562899   -0.40261299903534
H         0.48342925541890    1.71195384061200   -1.39094258068737
C        -1.03247487325329    0.62363445816731   -0.30635999981523
H        -1.76421193680332    1.43065324356944   -0.39119526419207
H        -1.22019081489402   -0.08377739792078   -1.11644917785393
C        -1.20160804121827   -0.07396531965548    1.03987333811515
H        -0.50745102004836   -0.91451864877512    1.10120203590615
H        -2.21585786764018   -0.46799746425165    1.13228415794359
C        -0.91928059863848    0.89509113572330    2.18437222857501
H        -1.64322785482010    1.71397696473975    2.15440404213773
H        -1.02344239078727    0.38593198705243    3.14440899589496
C         0.49111095492097    1.46698656724577    2.05817183284807
H         1.22934498053845    0.66156336035990    2.13142916290437
C         1.95498582752000    2.63059984905285    3.69118471767394
C         3.08708714738886    4.82263782920719    6.12886729515345
C         1.86953036167973    5.34962223314540    6.76853988659361
C         0.81738502163321    5.85063859119637    6.00646014258827
H         0.91448691934201    5.88362600267473    4.93289615906557
C        -0.33155906048578    6.31225943135314    6.62129430103306
H        -1.13919077625968    6.70709715016066    6.02198348710127
C        -0.45149764426304    6.27132987912585    8.00051478636014
H        -1.35119010510914    6.63023589935980    8.47855730170957
C         0.58579189465044    5.76398280941258    8.76584807328090
H         0.49457264984884    5.72275809803840    9.84184199447827
C         1.73869568183534    5.30635219840124    8.15631827745585
H         2.54148656161975    4.89603849665046    8.75369624710327
C         4.39515712554588    5.22174161871778    6.60483406202632
C         4.57990564114626    6.35630540222942    7.40822556588366
H         3.72958012621356    6.95854287700030    7.68731017001270
C         5.85397727601980    6.69963904603533    7.80615662904034
H         6.01865425146870    7.57347444847173    8.41963519299607
C         6.92431941758606    5.91179682617114    7.39827132842525
H         7.93566307302752    6.14608493282443    7.68935300654724
C         6.65721021928868    4.81909245700705    6.59318035373845
H         7.45559664161462    4.18140789091915    6.23812448702437
C         9.90317390052576    2.91903649660160    0.34924915986648
H        10.04922996167769    3.92230805027287   -0.05962448450103
H         9.09977136307540    2.43815343833123   -0.21127489907449
C        11.19498869196681    2.11801877256763    0.21084120298865
H        11.02786021276428    1.10204015849190    0.57477890065798
H        11.47948650286985    2.05563958004449   -0.84139425727941
C        12.31771976580466    2.76460409514553    1.01665979098005
H        13.22874410546884    2.16968355284883    0.92650740079905
H        12.52677343610059    3.75886673243870    0.61498860666440
C        11.91808225510975    2.88483208647581    2.48405872465314
H        12.71949662537547    3.36339073007707    3.05095904200497
H        11.75782543284350    1.88746471604720    2.89928401387611
C        10.63214306401474    3.69288692009428    2.62025731201024
H        10.33275983938889    3.75726366621892    3.66714843772936
H        10.78980153572317    4.70826620160224    2.24819160261760
C         9.50739884554735    3.02708179288538    1.81994030281263
H         9.32479627648617    2.03077480470680    2.23455521226533
C         7.33507995463063    3.49679550998214    2.88358567427563
C         6.88985524737851    1.16510914136160    5.39757525622022
C         8.14989314213288    0.39609479839938    5.37416610045501
C         8.13833390838836   -0.98795883291576    5.21871544434233
H         7.19387655191396   -1.50523145383259    5.12785728602296
C         9.32585514043286   -1.69353108174457    5.15277229161467
H         9.30584667785245   -2.76675779626048    5.02942426536495
C        10.53798823846213   -1.02873163110898    5.23838870881286
H        11.46420477988769   -1.58221625832355    5.18642807361870
C        10.55781197157356    0.34826324163916    5.38488263496753
H        11.50086001621978    0.87184035792976    5.45028578574128
C         9.37285770404797    1.05706802258109    5.44842086627855
H         9.38941507188384    2.13010669389414    5.56260696638140
C         5.84148759680004    0.86801029255962    6.34809722283806
C         6.00092419555757   -0.08325678204817    7.36659929390416
H         6.93581550286717   -0.61203189839712    7.46527808965186
C         4.95866828354112   -0.31931846317701    8.23748545449736
H         5.06090056173799   -1.04991281374369    9.02686265947378
C         3.77717725765119    0.39682169163343    8.08733860291703
H         2.93599794438000    0.23619776620807    8.74225798744141
C         3.71103491710905    1.33753185080509    7.07366753754023
H         2.81738652480600    1.92922281765598    6.92538492140631

