53
CSD_code = CINCUA | q = 1 | S = 0 | Stoichiometry = C26H22FeN3O(1+) | MND = 8
O        -1.40152041489263    2.63207107309402    9.01917026130811
C        -0.63286206201266    1.79012265664028    8.93149397726730
C         1.91248707067842   -0.30413121498527    7.32605263289880
H         2.95841052097135   -0.06483802246817    7.23566331208867
C         1.36039421759974   -1.38399191470753    8.03663481548464
H         1.91101932620814   -2.16634364450731    8.53074510659904
C        -0.04073047892230   -1.40926522006546    7.77452774445606
H        -0.71925201409532   -2.18585562777174    8.08622553799159
C        -0.34632671839509   -0.33407023686363    6.92885828014906
H        -1.30374451730792   -0.12744516058805    6.48272934300218
C         0.85669966181642    0.38059392795095    6.67723896002142
H         0.97745575236895    1.18025303692426    5.96650922479697
Fe        0.47760790211912    0.45184395661823    8.80647446580175
N         2.50739945026785    1.05226912333334   10.70712305187982
N        -0.05722338092336   -0.23141820228556   10.59665934144127
C         1.84952239736687    1.49983436028571    9.61785289601415
N         2.37172569337271    2.69239540168543    9.29420619326679
C         3.46866121743730    1.96441074813027   11.09615960942934
C         2.27014129967765   -0.23664021417857   11.30346461523980
H         2.84439290692210   -0.30812856011317   12.22703105023446
H         2.62052627507611   -1.01676406774464   10.61408598580464
C         3.38297506660129    3.02217704497577   10.17581198716594
C         0.40118285051663   -0.98849837531019   12.81047499682495
H         1.12867192525589   -1.17246549488467   13.58499644007223
C         4.39851987637281    1.98005906427417   12.12514190726677
H         4.47890154803600    1.17435378551485   12.83709153810073
C         1.99997743661406    3.48039647967880    8.14940367730025
H         2.11888826947662    4.53817918915334    8.40440567003845
H         0.94439618256612    3.29279254692387    7.94014752108679
C        -1.34946399440665   -0.49344737870687   10.80769564174613
H        -2.01335006742219   -0.27456784108149    9.98439548996318
C         0.80878768389167   -0.48139770304098   11.58363473108758
C        -1.83329565886936   -1.00996791268794   11.99353002645274
H        -2.88645554466008   -1.20693844360845   12.10666745267608
C         4.22708791333819    4.12037495739726   10.25985634631659
H         4.17682669731832    4.92874969085669    9.54887819536093
C         5.14713494436334    4.12933866346359   11.28984983338435
H         5.82066018907433    4.96542275374598   11.38860397266909
C         2.81258479180236    3.16022553838947    6.91308050424708
C        -0.93938583365822   -1.26000012143416   13.02445080474610
H        -1.27697841269686   -1.65473848006708   13.96933646137619
C         5.23047448333732    3.08024769639779   12.20497395762451
H         5.96562449946527    3.12827340555325   12.99228194917751
C         4.05157746739499    2.54026404246474    6.98063252744288
H         4.47836596308632    2.27029065890848    7.93600628212020
C         4.76085200549399    2.26767340277788    5.82197523968757
H         5.72434783537174    1.78528422583172    5.88734789005571
C         2.29836019936615    3.51188072147306    5.67028580962523
H         1.33722507501355    4.00211179915365    5.61278311160643
C         3.00917683477275    3.24416117822449    4.51458871053722
H         2.60015948812477    3.52396877649831    3.55607500575831
C         4.24180104202363    2.61613970378888    4.58804318649915
H         4.79648513770139    2.40415422699319    3.68754672680747

