61
CSD_code = CINDAE | q = 0 | S = 0 | Stoichiometry = C15H38ClMoO2P3Si | MND = 7
Mo        3.78192924504280   -0.12972518778896    2.18843382868269
Cl        5.89843204683560    1.08745075066188    1.99764322298163
P         5.00817399336237   -1.08271154240035    4.01338944075952
P         2.98988744847258    1.42023209437476    0.54340500840471
P         4.56853222227935   -1.74478375183934    0.64907163270117
Si       -0.12679935577912    1.09118305316162    4.41301050593620
O         1.16891740867414   -1.74234173257550    2.06775391960644
O         3.08476845252020    1.43120508973441    3.72218301646762
C         2.18692268496933   -1.18130272365552    2.07663798250563
C         2.49679994190530    0.36649918015900    3.67876705730672
C         1.42415426431517   -0.04318761457403    4.59934738775307
C        -1.43192823071825    0.43700690969334    5.63990978688214
C         0.39177381141524    2.87267818689867    4.85757456217574
C        -0.79408215087627    0.97323350634281    2.63513017172494
C         5.29909200120625    0.14215068854057    5.34098828707250
C         4.33015397292876   -2.47749218500543    4.99191779840733
C         6.73634433101977   -1.63865035342107    3.78059541132447
C         4.19032097849171    1.99655616883624   -0.70988240413131
C         1.54250690747273    1.07917312907174   -0.53279824582627
C         2.53155053031601    3.03979127173390    1.26022717875453
C         3.64204981139696   -1.95441718634683   -0.92113707596460
C         4.52422579272578   -3.48808845695660    1.20338075658017
C         6.26629506540721   -1.58429430241813    0.00574497293592
H         1.79162350352879    0.08099431453511    5.62097946354012
H         1.15539878652594   -1.08666160050282    4.44929395280366
H        -1.06331141096842    0.42911346004196    6.66103527129388
H        -2.31875500555955    1.06126146490058    5.61766255967411
H        -1.73786939762506   -0.57433793338777    5.39194385371126
H         0.39458744435667    3.02853035630700    5.93284319943754
H        -0.28040942018855    3.60733555239787    4.42401310219054
H         1.39477530156822    3.08397017398293    4.49606746475620
H        -1.76925136384831    1.44168580004671    2.54319121843445
H        -0.12437642774483    1.46267221343342    1.93457679462283
H        -0.89105212146270   -0.06256396678333    2.32331640323514
H         4.35020983785704    0.46708919874609    5.76901234243177
H         5.79332776610662    1.00530821187209    4.89108985298936
H         5.93015658137548   -0.27933428422285    6.12532908700897
H         3.36115020216448   -2.18677483734216    5.39377578804843
H         4.18778689169783   -3.34010593791673    4.34391363697769
H         5.00186924675063   -2.73867908301404    5.81012929400217
H         6.77094017355549   -2.51673985964827    3.13748052368797
H         7.18744067858261   -1.87639301444721    4.74524420022536
H         7.28460465189315   -0.82459064659496    3.30724618378052
H         3.74768648855084    2.77278075894934   -1.33586067879254
H         4.50640470183567    1.15843761915453   -1.33057097770944
H         5.06236560051450    2.38818226349586   -0.18723170556880
H         1.83208502155841    0.38020594164225   -1.31430361475136
H         1.18017621187102    2.00062257705082   -0.98874381201090
H         0.75070185270592    0.62243694520314    0.05596330373372
H         1.68811123335082    2.92145240702899    1.94003050172839
H         2.27944072583791    3.75558437729772    0.47592868401083
H         3.38968506007382    3.40016807306035    1.83061056347638
H         4.02630569585030   -2.80070222926895   -1.49182078334605
H         2.59337439158142   -2.11978750948684   -0.67497165724734
H         3.72986522503402   -1.04598949174287   -1.51532072624118
H         3.49118924269483   -3.72611940712549    1.45612827143101
H         4.87693312538547   -4.15646321458139    0.41716771537006
H         5.13937383861048   -3.60663498068548    2.09289705051150
H         6.35947152499367   -0.60416069205782   -0.46189260075870
H         6.96622401586588   -1.62575094093642    0.83811983775742
H         6.48353895199017   -2.37330707174714   -0.71586776729746

