73
CSD_code = CINMUK | q = 0 | S = 0 | Stoichiometry = C29H39FNNiOP | MND = 4
Ni        7.69352691454942   10.46296569253738    6.18546717464973
P         7.34425896435455   12.52139770865044    6.74663472773568
O         7.39995860742099   10.09929758285765    8.02713324900459
F         8.63688210845752   10.30578214419918    0.24675093934257
N         7.98844804684929    8.54086179984913    6.04059178819761
C         7.12776765373059   10.99484318845108    8.92456313412056
C         7.03067733478775   12.35192574033912    8.53303620042583
C         6.92529871956448   10.65531233479601   10.29016097934019
C         8.43758187434140    8.68036457553521   10.38469661046864
H         8.63174541644594    8.78494615981852    9.32140741099317
H         8.52887737382875    7.62911694859980   10.65342522001278
H         9.18823682665197    9.24676474801471   10.93321878154407
C         7.03189112270585    9.19842126730468   10.71982178153764
C         6.63621627589823   11.67685539109013   11.17221870578606
H         6.47455220860911   11.45600529618253   12.21542017768164
C         8.19809524709492    5.96429121613833    7.04537110298116
H         8.27770607060586    4.96581774256715    7.44844530081263
C         7.98287934112416   10.61367370511357    4.33378249669437
C         6.74121120495789   13.34976053550965    9.45352209797852
H         6.67067872683335   14.38436638532276    9.15655563366923
C         6.79498947504773    8.99973629573561   12.21925636368207
H         7.53066117689980    9.54251047681003   12.80896436005833
H         6.88558553840157    7.94169966667657   12.45953776543151
H         5.79750711560975    9.32507017981550   12.50665292944109
C         6.92068596169468    7.75175368670420    6.11887768682094
H         5.98215066572381    8.16819016469199    5.77338742631483
C         6.93136306653328   10.38254210523930    3.43815538649439
H         5.91495224863648   10.27711933715523    3.80012996200698
C         7.13851565727975   10.27974930239717    2.07226191633892
H         6.31817972995516   10.10600938364225    1.39260903690854
C         8.89954937265703   13.59023566762144    6.64291087173035
C         6.54241095241529   13.00563684602851   10.77407534529933
H         6.31429752156618   13.76852178105738   11.50401969233183
C         6.97868902948829    6.46014950370669    6.61386591607338
H         6.08307184334492    5.86154342029001    6.66900323203925
C         9.26816872563322   10.71182067235863    3.78832804525401
H        10.12803622065322   10.86800010981325    4.42895007581946
C         5.76612474732639   13.28596268463150    6.04237782464816
C         4.76057264131538   12.14642924907072    6.24483635573384
H         3.81957646028761   12.36063632114535    5.74062346800966
H         4.56074152065630   11.99869278592644    7.30585789042233
H         5.17077619088142   11.21237442449772    5.84480158708159
C         5.98426537502471    8.37736553130931    9.95517841258476
H         4.98193350849774    8.72326994864078   10.20165646273693
H         6.06357790610436    7.32317459361614   10.21593716780439
H         6.13524535987409    8.48275663518495    8.88495676669629
C         8.89400091136760   14.85390458642869    7.49615635531860
H         9.84107535838690   15.37686841432780    7.36222655130756
H         8.78884501153679   14.61532529782757    8.55075247353333
H         8.09555472661733   15.53122865853441    7.20343662883710
C         5.25867575834372   14.54107660230054    6.74356683488801
H         5.98633729379526   15.34756182209716    6.69583415967786
H         5.01472056421320   14.34091673941619    7.78266875067094
H         4.35052054370409   14.88196218535690    6.24606316634616
C         9.96783801436989   12.62652340663639    7.17368018873139
H         9.89948933246944   11.66644545062255    6.64725306197275
H         9.81511008010956   12.43840614790696    8.23625734309472
H        10.96796623039969   13.03385277723069    7.03354755298404
C         8.42349431316989   10.40229566819219    1.58308197995044
C         9.16199273379621    8.05949749687530    6.44028367803334
H        10.01587364185173    8.71963037961301    6.34618365849740
C         9.20010320388906   13.95355271437628    5.18998980829041
H        10.24280607088643   14.25401701955670    5.09190123046206
H         8.58324596246731   14.78633497341599    4.86320663722255
H         9.02193380371428   13.10611106479552    4.53192543850651
C         9.31313889744554    6.78058798719069    6.94798646930728
H        10.28440977066862    6.43723151151732    7.26792536468310
C         5.93407128939956   13.56984518025035    4.55053175655693
H         4.95569415289528   13.67999434872086    4.08392210991659
H         6.46137812307454   12.75732704906787    4.05599402703455
H         6.48419584786752   14.49260481630376    4.38906087218470
C         9.49656973300913   10.61240806123913    2.42509264241176
H        10.49254058025685   10.69446870374662    2.01713579883373

