74
CSD_code = CINMES | q = 0 | S = 0 | Stoichiometry = C32H36O5W | MND = 5
W         3.52747721978257    3.52729528222859    3.92507582001940
O         3.52727295296358    3.52730014901851    5.61662533512378
O         5.23570425399712    2.98251712779720    3.34193024961613
C         6.34640621503179    3.61678518311626    2.92400903327097
C         6.86540348418689    3.31272606350952    1.65244405585095
C         7.99748905691171    3.97152166285017    1.20462579560715
H         8.39052290518049    3.74088380272723    0.22490226463738
C         8.62322743582476    4.91868102940188    1.99744283122504
H         9.50474176461150    5.42801959020616    1.63847262107887
C         8.11509434499223    5.20951941421789    3.25043362011182
H         8.60309481726810    5.94764589767310    3.87085232853336
C         6.98187658554307    4.57040949459710    3.73630845928741
C         6.15636908099526    2.28421418915967    0.82072362431616
H         5.07372774808461    2.41964606005983    0.89911014502338
H         6.37843919616959    1.28043194968557    1.18543314809784
H         6.45338141073794    2.35190004605277   -0.22287373120741
C         6.44752266119592    4.90036988986260    5.10451840609401
H         5.57104773391517    4.27398539333136    5.35105769525696
H         6.15253245141365    5.95054133654615    5.14653731496556
H         7.21816955968399    4.73732347042427    5.85843091890419
O         4.07245521278111    5.23527245805921    3.34121135958592
C         3.43882632712177    6.34648801034350    2.92360703390414
C         3.74284988986063    6.86556394426628    1.65205483070106
C         3.08481200321607    7.99828550910132    1.20472909512258
H         3.31567768469197    8.39150795486188    0.22512910644906
C         2.13825964522309    8.62452569494626    1.99786465861314
H         1.62969810068501    9.50667157970372    1.63933078028080
C         1.84711631448856    8.11606122327527    3.25064767871663
H         1.10944871392868    8.60440175156717    3.87135908684095
C         2.48560611574412    6.98231283099391    3.73610040517152
C         2.15524689243209    6.44765972652717    5.10402886847491
H         2.78122587493536    5.57106952050831    5.35070377281020
H         1.10512273607281    6.15278371659438    5.14569586805286
H         2.31796063771854    7.21788435079904    5.85832695450503
C         4.77050270044809    6.15605046717008    0.81962507257372
H         4.63415741006528    5.07345626655990    0.89751135676468
H         5.77460374453635    6.37720105888632    1.18410737465837
H         4.70255039544615    6.45370873828450   -0.22381031319829
O         2.98288132880639    1.81946154972707    3.34036722374074
C         3.61595818577225    0.70775344320906    2.92320387112543
C         3.31154376400541    0.18818574961953    1.65194102624819
C         3.96917311107973   -0.94494043632335    1.20504239702512
H         3.73802129548097   -1.33850207012792    0.22564802928825
C         4.91563773698369   -1.57114399351925    1.99830845071611
H         5.42388151091648   -2.45359577170361    1.64007753364369
C         5.20702438692055   -1.06229289093866    3.25087522208816
H         5.94450844304209   -1.55068882669324    3.87175980698676
C         4.56893558097105    0.07185658171947    3.73592495807697
C         4.89944986999191    0.60681769646110    5.10368111493433
H         4.27297375730035    1.48295131336452    5.35062107656819
H         5.94934527413711    0.90251932454040    5.14491123485347
H         4.73769201669533   -0.16345906599361    5.85810547807299
C         2.28383472567797    0.89740108674386    0.81931692939246
H         2.42012902123744    1.98002871488487    0.89664716386028
H         1.27977307419684    0.67638368507550    1.18399797589374
H         2.35167471100217    0.59923076359528   -0.22398210476445
O         1.81965202179095    4.07229981027959    3.34041454578928
C         0.70848204173901    3.43842952611445    2.92300266376295
C         0.18883647204794    3.74268785878895    1.65173172700773
C        -0.94355657513393    3.08407639739322    1.20442046847598
H        -1.33719177707818    3.31511025196275    0.22502371122223
C        -1.56895738313084    2.13674745020324    1.99729186663794
H        -2.45084072670136    1.62772311318511    1.63877075449562
C        -1.06007035000272    1.84553264286919    3.24988801564870
H        -1.54789029588962    1.10744424607790    3.87050968406989
C         0.07332713535480    2.48462613249669    3.73535065852687
C         0.60827463776636    2.15428226218018    5.10313655426657
H         1.48327666742930    2.78198275870857    5.35079311375157
H         0.90564589642951    1.10486139456175    5.14397184096536
H        -0.16251342279082    2.31438175357376    5.85735225394495
C         0.89729484106299    4.77130442650979    0.81957657788569
H         1.98000909538347    4.63560979166582    0.89675196816793
H         0.67570021207453    5.77499912541040    1.18492278166915
H         0.59906243754488    4.70391236946143   -0.22373949988087

