82
CSD_code = CINQAT | q = 0 | S = 0 | Stoichiometry = C39H33N9Zn | MND = 5
Zn       10.06426039148467    6.38905434945508    8.91278695310871
N         9.57531764161653    4.91865165418462    7.67562144277788
N         9.91242502523980    6.02973547528024    5.57931457063075
N        10.14864732576473    7.61754211527316    7.35871273768524
N        10.48934948918593    9.69059961461191    8.50982419199792
N        10.00177025692395    7.96962070276203   10.10446357945070
N         9.59625245656420    6.87533189241620   12.19843430330023
N         9.46575277061816    5.26662798669504   10.42764543021624
N         9.07925289645192    3.20252471271426    9.27187583512472
C         9.25502687082699    3.65542323896823    8.05042258561727
C         9.10928248179273    2.82502149033557    6.86716985914129
C         8.79606735330942    1.48857841543454    6.68491337008872
H         8.60742600819113    0.84978420501679    7.53321619673503
C         8.73497144400049    1.01315230900081    5.38591654906831
H         8.49391938119464   -0.02497497432859    5.20882239226823
C         8.97688112339949    1.84784571926338    4.29704418567978
H         8.91725144085510    1.43970837022942    3.29850276051232
C         9.28833608118959    3.18569660018959    4.47095948711094
H         9.47300643601029    3.83957382046100    3.63328756781951
C         9.35431464958039    3.66786009077203    5.76733628981979
C         9.63997982096548    4.97982284012936    6.32221908125125
C        10.13252362162496    7.23434424373382    6.05799820318092
C        10.39960000722169    8.38632847789997    5.21376199616794
C        10.49237504466171    8.54975567453977    3.84189475448599
H        10.35467116227288    7.70968756714826    3.17958906140823
C        10.76307370107095    9.82003324607479    3.36193962375823
H        10.84166909659017    9.98194935717287    2.29667232948942
C        10.93497646081685   10.89927146082082    4.22593880059497
H        11.14366483225687   11.87534945148477    3.81250656739021
C        10.84154792356406   10.74427474013531    5.59867115417454
H        10.97021820781400   11.57522990788131    6.27415714802945
C        10.57309167735824    9.47643547440467    6.08637323884349
C        10.40152288509477    8.94758586060108    7.42860201795918
C        10.29591289657729    9.23849156470846    9.72896132563843
C        10.37340994856222   10.08412345529925   10.90816849050742
C        10.64868893187099   11.42926877458029   11.08862867150741
H        10.85848404415285   12.06428780860415   10.24228793315967
C        10.64561617276069   11.91857643262170   12.38404948167247
H        10.85913956321338   12.96303236576250   12.56007628701525
C        10.37215642011627   11.09039331003505   13.47067382432043
H        10.38040230591154   11.50999711852035   14.46602971192172
C        10.09366537446803    9.74528914445679   13.29773279669374
H         9.87998677956711    9.09809427484095   14.13365203409520
C        10.09789255417219    9.24803521098577   12.00546789003301
C         9.87146696527173    7.92348266777971   11.45376843395541
C         9.39457144897135    5.66717589885104   11.72156472966181
C         9.04023694499313    4.53330018585789   12.55769870703909
C         8.84258671563482    4.39131883636971   13.92084634627898
H         8.95553752525847    5.23608851729050   14.58180577830476
C         8.49666233673486    3.13673273799466   14.39365393634893
H         8.33611829467111    2.99139037471321   15.45210122719879
C         8.34812185183461    2.05320044893448   13.53070980336919
H         8.07583633454143    1.09036263682569   13.93813548995699
C         8.54041888681808    2.18818349696636   12.16612618405432
H         8.42374916934055    1.35534817060243   11.49082810469559
C         8.88991713842032    3.43909641162285   11.68608272432708
C         9.15859090737796    3.94742111257647   10.35178072882788
N        12.25587913173314    5.93199768425503    8.83328440702748
H        12.50301380795930    5.06756339592588    9.31222842346826
H        12.40627693165912    5.76142193440593    7.84096037688051
C        13.17188143414293    6.99377497130921    9.27712806676919
H        14.18830253926204    6.82818029345544    8.89335660962824
H        12.80698331705736    7.93880880663103    8.86686435456787
C        13.20305494891911    7.07328270839767   10.80096915938468
H        13.83611609481627    6.27663924258346   11.20056626960827
H        12.19267272381739    6.91113459093874   11.17845501194347
C        13.70451999961489    8.42876924046020   11.29223193397728
H        14.72224877634559    8.58865828703680   10.93136663818566
H        13.07142810060111    9.21390004857682   10.87224945552189
C        13.66587863239189    8.52294784105036   12.81605365421163
H        12.67727891503618    8.20575656146036   13.15641927329314
H        14.40122196153275    7.83669949844120   13.24316638661780
C        13.92385885925396    9.93647175734746   13.33609591385302
H        13.19490384524800   10.61746959596568   12.89134518266892
H        13.76243020250691    9.94319038088663   14.41684974527340
C        15.33398158635910   10.44760072523117   13.04893379137489
H        15.48472796881874   10.52489886756627   11.97112607550270
H        16.06382077472221    9.73433226887241   13.43937552470970
C        15.57123296782175   11.81298567173871   13.68272136671126
H        14.85523979886473   12.53715369721542   13.30026415548617
H        16.57417720388922   12.17087460280328   13.46128399569230
H        15.45717400087820   11.75807027990677   14.76317932228830

