67
CSD_code = CINRIC | q = 0 | S = 0 | Stoichiometry = C35H21F4IrN6 | MND = 6
Ir        4.10247139673110    1.93592431630172    4.02236553126487
N         3.93119248257117    3.93634125774826    3.89057287536735
C         2.71721531859384    4.46080149863031    4.18940200847746
C         1.76922204682006    3.48741324238644    4.71351775036435
C         2.25717508566235    2.15987815110547    4.78951042432518
C         1.41646896298052    1.16816399067747    5.28043913684551
H         1.74174649215107    0.14233032221434    5.36101228786867
C         0.13155419778954    1.48029223682765    5.68073191640218
C        -0.36940981405889    2.76803525068456    5.61761594888827
H        -1.37322075497985    2.99907889964605    5.93291832366695
C         0.46468974243748    3.75337239781307    5.13222734039632
C         2.46585406108077    5.81922227017025    3.98969576798051
H         1.49816070638445    6.23127292274273    4.21461767796886
C         3.46014023658679    6.63943341287778    3.49417537313384
H         3.27172811126295    7.68945090442941    3.33244899822337
C         4.70271179561979    6.09009107168935    3.21156662454043
H         5.51094087190936    6.69298664821826    2.83039078391863
C         4.88629373755898    4.73837602192576    3.42438837195702
H         5.84427037027429    4.28185520490937    3.21422621436038
N         6.02905978612132    1.75794756100753    2.94015424914349
C         7.26160730511914    1.64823147364333    3.42199479119819
H         7.35513458633292    1.68973075816325    4.49921347677374
C         8.37386965858368    1.49642807827110    2.61695495831923
H         9.35369005833812    1.41185169214353    3.05840053658567
C         8.19967417867440    1.45755512629416    1.23560475411241
H         9.05020091415521    1.34177137781301    0.58053777821686
C         6.92682605100154    1.56923725121630    0.72287600122904
H         6.71985309123681    1.54698507664346   -0.33451227382612
C         5.85230045647662    1.71662112175982    1.60555334381855
C         4.49895139398706    1.83269300989784    1.15185332939321
N         3.48778539023465    1.91249980194732    2.04651071405906
N         2.36244465717982    2.00987000388762    1.36923759396486
C         2.71333341124874    1.98560097565483    0.07277916277284
N         4.04246808556124    1.87317623638520   -0.10245572455272
C         1.75614550351556    2.06747665999193   -1.01064420981225
C         0.39474679293748    2.17941669206526   -0.73539696913188
H         0.07405647299898    2.20387830698561    0.29491874868219
C        -0.51504192298699    2.25696031041882   -1.77185483895553
H        -1.57046049635098    2.34385947602053   -1.55641029222185
C        -0.07889445885027    2.22416335909840   -3.08720440886026
H        -0.79336994006465    2.28539487355372   -3.89565320765411
C         1.27439161022473    2.11268745929433   -3.36485732671915
H         1.61368783234966    2.08673517487877   -4.39067108695548
C         2.19038780059437    2.03420769612975   -2.33385478816544
H         3.24786798949082    1.94653505323304   -2.53126786479059
F        -0.04272871827616    5.00491743819938    5.08594728427663
F        -0.66418426068804    0.50190627105085    6.15497628825430
N         4.20615018543785   -0.06350563057302    4.23489347114587
C         4.85696461740058   -0.52765512114402    5.32979538963114
C         5.29938186688442    0.52071173091176    6.24327674511570
C         4.94171882619948    1.83854357252318    5.85697771397292
C         5.31072588741339    2.88941105318518    6.69145745612556
H         5.05473494809321    3.90949825587747    6.44751102182603
C         6.01009509980474    2.64938790729701    7.85825849304411
C         6.37906455113857    1.37387015198988    8.24678454134977
H         6.92996999700668    1.19776712854363    9.15550763436148
C         6.01179843802668    0.32662365514061    7.42709045700020
C         5.03259285718624   -1.89926837934496    5.51672231981188
H         5.55035918782972   -2.26939398992689    6.38384673463576
C         4.53344266449556   -2.79115115116899    4.58687932947323
H         4.66605934986298   -3.85302891662645    4.72564000382413
C         3.85231593619325   -2.29891824415198    3.48329630437767
H         3.43419340953378   -2.95764611885321    2.73980059706289
C         3.71275407486039   -0.93070710241243    3.35340648532299
H         3.17455808310686   -0.51386549951239    2.51384361402714
F         6.39404590285640   -0.91012987554328    7.82228610164519
F         6.35916584012746    3.68759823715529    8.64487221114899

