92
CSD_code = CINVOM | q = 0 | S = 0 | Stoichiometry = C29H46F6O6P2PdS2 | MND = 4
C         0.74746028950047    7.03372423728249   17.08326533586895
C        -0.63978126097266    6.99030314023804   16.94490790296844
H        -1.11930308039291    6.08542710986369   16.61222845038314
C        -1.44144932389724    8.08514922338605   17.20664880859794
H        -2.51075488619092    8.01178683678224   17.08297309268180
C        -0.86249280198239    9.26946872571919   17.62275648062054
H        -1.47038308639077   10.13494875450712   17.83554067081853
C         0.51101444676708    9.33538814934809   17.75370196625058
H         0.96222038670672   10.26618672974280   18.06718650415558
C         1.33290514226798    8.24100840189442   17.48849515284061
C         2.81015103918416    8.46350843033638   17.59405473539404
H         2.97570019755789    9.46498598928869   17.99593863414552
H         3.24487663277793    8.42332793156408   16.59213862790662
C         3.23739691802431    7.45709085157570   20.35964314023363
C         3.94799904107534    6.41319196220558   21.21850268870458
H         3.50122071625368    6.39265144205000   22.21130884183294
H         5.00469146902265    6.62328618072982   21.33492999659457
H         3.83196356655761    5.42249507576630   20.77606612847268
C         3.42831398670675    8.85441640744164   20.94342429127920
H         4.47983609784909    9.08274131446539   21.09087087519778
H         2.94380193922560    8.89706731234258   21.91766417745843
H         2.97577517091739    9.61838896137693   20.31563739459957
C         1.75263253544270    7.09443654276402   20.34694304489161
H         1.14510955682640    7.86264345980899   19.87691436461007
H         1.40081917943578    6.96324394697135   21.36846103988879
H         1.62458307277649    6.15048583845674   19.81630996630185
C         5.55759131486802    8.02733875110053   18.27775046345460
C         5.96684153852567    7.56539431399404   16.87608595844073
H         5.94033617038886    6.47467489884020   16.79493322416744
H         6.98757291957966    7.88608274480415   16.67371065437414
H         5.33002607779884    7.99624587815678   16.10409892623312
C         6.54488430123074    7.43985652762444   19.28429736728385
H         7.56249320528378    7.68186266273786   18.98139923927826
H         6.45310636938610    6.35610595420458   19.30858001473159
H         6.39316165738148    7.84298701498981   20.28262558590150
C         5.60890741975815    9.55782379306733   18.32832690283097
H         5.20775549494718    9.95876031691193   19.25326655141474
H         5.08352267708212   10.00715631636340   17.49000105447458
H         6.65110761876289    9.86571696841242   18.26050224532772
C         0.59741563012429    4.09704108751278   17.08559500467235
H        -0.42463864929112    4.33848989489916   16.76923805062199
C         0.61355082319804    3.89966293786702   18.60497776200766
H         0.22455735929019    4.80134617110809   19.08921532678711
H         1.64844540172350    3.72544956543171   18.93484887095067
C        -0.24566070065857    2.70640212030697   19.01839531943415
H        -0.17902329014322    2.57258902654528   20.09867699752033
H        -1.29319030193147    2.90010106300267   18.76675302861390
C         0.22463763801628    1.44567088596940   18.30389278449685
H         1.26189990252143    1.24524899939479   18.57673722790375
H        -0.38304593072011    0.59137988992264   18.60848603579332
C         0.13131089434082    1.64738146407955   16.79608989128698
H        -0.90845159343995    1.84431129128645   16.51560001262856
H         0.45247957460287    0.74392622359986   16.27610676447204
C         1.01898742811365    2.81384906625108   16.36657177269821
H         0.95214733672692    2.93983315408263   15.28368328455062
H         2.04970100536066    2.57511029977087   16.62462345990678
C         1.90032059277172    5.57538917844624   14.86394549682157
H         2.35372833200543    4.61410602897279   14.60654302627594
C         0.57557050844094    5.72716258713295   14.11591002581919
H         0.13212911289440    6.69988478800167   14.34331455019756
H        -0.13101043908787    4.95107718822045   14.41432559024975
C         0.83331787665254    5.62567524007032   12.61276937789758
H         1.24681802298100    4.64168577511162   12.38569231452786
H        -0.10859910900037    5.73094472530682   12.07053365173831
C         1.81741045655055    6.70076016542382   12.16366123257583
H         1.38205940234271    7.68737157825492   12.34201027792911
H         2.00403197962899    6.60654319346465   11.09295436114935
C         3.12875969013540    6.57566924479504   12.93387384958756
H         3.59540199929301    5.61474319605108   12.71569010760781
H         3.81950359971741    7.36142837864776   12.62364531730931
C         2.87767227777225    6.67064298294962   14.43723425883501
H         3.82087325427031    6.52756598718539   14.97347467896636
H         2.45335956677110    7.65255828187479   14.66958875033706
C         6.16145855949619    3.34074862113028   20.67776227206903
C         4.71889653622755    2.39044346752399   14.66262570164169
O         5.57221125780543    4.46354900026796   18.44197854018142
O         3.73870213281327    3.55574086684285   19.69050822047691
O         5.30725389229409    1.94990213580820   18.70381821031828
O         3.94203606006309    3.24006015276304   16.94935564100980
O         6.41834057557008    2.88297908785983   16.53894308353390
O         5.18135856545843    4.78080387776979   15.60794578130010
F         6.37431910320513    4.59536794486529   21.12873008400416
F         7.36494472615503    2.82132640467322   20.43388026010958
F         5.62832388401000    2.66184593342912   21.70384037007629
F         4.52291908032181    1.11018598803861   14.98104348651074
F         3.57428114671678    2.81410678794198   14.07854934106879
F         5.65785828502079    2.43670732594902   13.71153657474109
P         3.83839902519771    7.27610571219340   18.57476663907119
P         1.73558338682370    5.52806505661784   16.70977667991529
S         5.04553679113574    3.27326264525246   19.13107642822005
S         5.17460113214414    3.45010523966848   16.17756957753433
Pd        3.71969249752851    5.21113299338030   17.71974414545398

