52
CSD_code = CINVOL | q = 0 | S = 0 | Stoichiometry = C13H30Cl2HgN6 | MND = 4
Hg        0.16814337125647    4.17087365514898   -3.19982239907339
Cl       -0.22623422503387    5.97944762070710   -1.83338353333900
Cl        2.00346239831154    4.13279728983478   -4.58233533530566
N        -0.22585154138478    2.49631408952045   -1.71362419950045
N         0.86375306486028    2.08066482406701    0.33527211098226
N         1.77494815691217    1.34567789034469   -1.67161224387657
N        -1.92215767588719    3.85127862198237   -4.02672696678392
N        -1.63097880798738    4.04218014789714   -6.30806000802002
N        -3.25211046815966    5.34602234019950   -5.27253194732294
C         0.51718210484177    3.27472229225571    1.07352660777448
H         0.34599212527666    4.10295837101469    0.38943647390603
H         1.35048198981961    3.54382271412617    1.72888891331137
H        -0.37294545280542    3.12487235129476    1.69110577606117
C         1.52433763442485    1.05368035640382    1.10353911922945
H         1.69524449209896    0.18249845679942    0.47688079791561
H         0.87697632257270    0.76970966014057    1.93815461654744
H         2.48026774217173    1.39212740829468    1.51747025058329
C         3.16217987151781    1.69350316705079   -1.43601254525425
H         3.26714052018018    2.24249459575117   -0.50509842840720
H         3.53146688552199    2.32600543626353   -2.25034431896652
H         3.77071967797254    0.78787115766347   -1.39307459655593
C         1.53267620472824    0.84044656371181   -3.00608136408633
H         0.48436860196298    0.56760817579525   -3.09765044094160
H         2.15670455510743   -0.04315834782006   -3.15039958518303
H         1.77804447574312    1.57274231516165   -3.78151583217507
C         0.78238362933440    2.03658892978043   -1.02978941647805
C        -1.51448160518970    2.69705374564926   -1.06668138295590
H        -1.59182665170122    3.69057129066183   -0.61273823942293
H        -1.63013814747141    1.94724249365756   -0.27386196050921
C        -2.65560435181603    2.54619344848936   -2.07873491917851
H        -2.45228467965615    1.69386447167993   -2.72822423066460
H        -3.57342109262289    2.34936005672757   -1.52105436858844
C        -2.88622929291043    3.79485082579420   -2.93732778137779
H        -3.89702447126365    3.76158854412407   -3.36319275970592
H        -2.81713006166647    4.67308097356998   -2.28672445143878
C        -2.23891665408720    4.43463789827915   -5.14729231256098
C        -1.08731481729447    5.03440300988876   -7.21349619238364
H        -1.51324539533174    6.01252562461614   -7.01135145720436
H        -1.30010178766752    4.75308074762538   -8.24706553180762
H        -0.00188780990467    5.10031589106356   -7.08444662072598
C        -0.91642502029182    2.78416197285589   -6.34279149827681
H        -1.40278607109051    2.08053979154671   -5.67184577195193
H         0.13144301935609    2.89117692729531   -6.04618685566514
H        -0.95292320177376    2.40336770993770   -7.36493082578534
C        -4.04960784490203    5.45723686229606   -6.46951803679486
H        -3.88676268195753    4.58629058845920   -7.09861283915475
H        -3.81961546039555    6.36252546001005   -7.04156548729557
H        -5.10498988729824    5.49724248660212   -6.18489926032281
C        -3.42657323774302    6.41465293840376   -4.31440396238020
H        -2.58719934085330    6.43953218444557   -3.62298961158964
H        -4.35714608542328    6.30478811679074   -3.75033688677511
H        -3.45610302238059    7.37026585612956   -4.84593826050864

