73
CSD_code = CINWIG | q = 1 | S = 0 | Stoichiometry = C34H33CuN5(1+) | MND = 3
Cu        6.00049280634248    6.55351549748780   17.90890436592623
N         4.71754250262176    5.23004032407091   17.89061793757128
N         5.37953085779517    9.92176733467879   20.19324853533472
N         5.42302442980363    8.25070287734053   18.73293653197696
N         9.65863083359312    6.68115613646718   16.04012931658470
N         7.80423193476554    6.31190220076358   17.20224329331741
C         3.74204888436357    4.62872300644662   17.98863154825342
C         2.54951705301230    3.85830689649496   18.09839271494337
H         2.39720918253681    3.28197276427701   17.18560186446205
H         1.69636801298315    4.51886583258941   18.25473135650383
H         2.63237029546934    3.17404250969590   18.94291041969714
C         4.13672500489444    9.88844928578945   19.60183011140052
C         6.10768845476317    8.92689067392541   19.63750271957194
C         4.17519188400097    8.82270980406576   18.68056251546382
C         3.06704730981058    8.51617223524425   17.89997154318981
H         3.10706192317215    7.70274537511506   17.19230164428871
C         1.94153956583409    9.29472928845358   18.06443323998016
H         1.06152280268791    9.09008767072121   17.47443188065953
C         1.91023743657830   10.35404949133575   18.97545449318443
H         1.00828944622379   10.93889928896969   19.06619636329250
C         3.00148091508333   10.67139724217605   19.75763344620235
H         2.96939315488006   11.49442758546547   20.45373126970578
C         5.80387673600654   10.84228398976788   21.21760937824279
H         5.48645389808593   11.84957579647626   20.93062408090044
H         6.89597556269183   10.81923666729068   21.26700795579627
C         5.21357793062398   10.48764324034749   22.58548125793670
H         4.12396916858244   10.50131032532416   22.52403565247660
H         5.51696402748449    9.47479812434293   22.85765051574746
C         5.68398662584995   11.46820845115633   23.65089347377608
H         5.37533928027236   12.48116697595379   23.40430705641220
H         6.76789420266757   11.45044604978404   23.73735911187681
H         5.25891376438220   11.20729300427378   24.61579536007455
C         8.44657907981859    8.78806026649777   18.90736336842128
C         7.51219474885559    8.63717486200287   19.93717794159094
C         7.91266005452466    8.14756399255315   21.17448340621495
H         7.18377261073842    8.01795221858374   21.96035243472961
C         9.23439293347790    7.80051790539543   21.38857448464990
H         9.54054536554124    7.41966861071284   22.35038129973694
C        10.15973848165731    7.93366677915255   20.36659422996466
H        11.18956139515172    7.65689512593687   20.53169124015717
C         9.76823750765054    8.42682884252845   19.13466854291742
H        10.49487463670455    8.55196271851976   18.34500603046504
C         8.03120301272662    9.36868514754404   17.61377661784375
C         8.12757374373696    8.61505780327200   16.44000428389898
C         7.78319396424498    9.18264650590612   15.21883706500293
H         7.84250769554609    8.59025691586305   14.31826010469497
C         7.33895229365440   10.49109060586520   15.16112466998688
H         7.07174700360137   10.92622623054021   14.21080956693714
C         7.23077630764405   11.23721779691578   16.32305498460927
H         6.88023833206697   12.25685747453543   16.27936521363026
C         7.57638580418347   10.67935264666577   17.54077717701899
H         7.51253533610914   11.26843661698501   18.44426082860779
C         9.67920444902208    5.35054506270883   16.39379795688721
C         8.52159567799022    7.20789351477186   16.54809485189863
C         8.49653121282577    5.12683458463364   17.12549068822936
C         8.20110847050538    3.86866439872400   17.63599221103398
H         7.29050317485068    3.70564845919326   18.19125563135660
C         9.11226294947564    2.86137690230438   17.40199997261560
H         8.91924523513326    1.87014717567561   17.78189081467159
C        10.28925493561867    3.09038119139981   16.68395128760908
H        10.97485306443759    2.27191890205435   16.52922678488869
C        10.59523521145928    4.33268395748497   16.16781537037826
H        11.50691578786878    4.49981933734700   15.61655369824800
C        10.66316274324971    7.36318260990260   15.26395534228581
H        11.64791458964041    7.08254214933156   15.65044795987277
H        10.52751408429836    8.43988270461720   15.39822784477562
C        10.57567975990718    7.00901924881337   13.77658341666860
H        10.70319894755807    5.93226359767094   13.65275715636514
H         9.58440618891838    7.26983871780091   13.40092751705781
C        11.63855659716182    7.75124688131069   12.97830984498708
H        12.63424846458287    7.49304603802390   13.33063618464797
H        11.50856172945323    8.82684145590011   13.07283963739420
H        11.57008053052184    7.48888809808951   11.92652138226597

