135
CSD_code = CINWUT | q = 1 | S = 0 | Stoichiometry = C57H74P3Pd(1+) | MND = 4
C        -1.37826344299536    5.09059842838338    4.85792112832993
C        -2.15112694412646    5.75235323096794    5.81382939811269
H        -2.52638945811263    5.22376225153681    6.67372622036823
C        -2.47387959661088    7.09056983997348    5.69712380730920
H        -3.07624025293083    7.56467268466506    6.45645659676529
C        -2.03228019515328    7.80951451426090    4.60174707015805
H        -2.28270569164879    8.85274251689535    4.48993534027285
C        -1.27460632938194    7.17053199394451    3.64027872378513
H        -0.95800562831193    7.72766401866629    2.76941559209249
C        -0.92838247097025    5.82594605827274    3.75056632109910
C        -0.15506098943745    5.21571817624942    2.62138094709568
H         0.00168069980533    5.96686070631094    1.84312323126047
H        -0.74592734200460    4.39866782366933    2.19830601079316
C         2.56574175361440    5.88863554339996    3.59804731969784
C         2.18675871371569    6.01849199281471    5.07936610566492
H         1.12116158649460    6.24924664886416    5.17125414736291
H         2.38200153309243    5.05594409142134    5.57903204779217
C         3.00692455865849    7.12209013157482    5.74078686796061
H         2.70975886636395    7.21188281161304    6.79120924145743
C         4.48876521104873    6.76600516261506    5.65203194576393
H         5.08942343988118    7.54059176954952    6.13114258057019
H         4.67807223351681    5.82457699375962    6.17292785941269
C         4.88280501828597    6.63802289488016    4.18298413653002
H         5.94266911207923    6.37331085786405    4.10993052724810
C         4.05269559764304    5.54686176797408    3.50277756385491
H         4.24344911546898    4.57608948431034    3.97217003548886
H         4.35689221786086    5.49576659610554    2.45636228954229
C         2.31120527080345    7.21412431638586    2.88492459521881
H         2.57660840323173    7.13742349104570    1.82788575921447
H         1.26099897064151    7.49341862046143    2.96125695625396
C         2.74262205464589    8.44276181904229    5.01904477049148
H         1.68285188800711    8.69982862860087    5.09215292602920
H         3.31420184704319    9.24356249840023    5.49040094813613
C         4.63531177009123    7.96416547442244    3.46623111687364
H         4.94313738854163    7.88864012680855    2.42090730021857
H         5.22667159161117    8.75490871573624    3.93025063570695
C         3.15046916326957    8.31010216411237    3.55222766727821
H         2.96499981808444    9.25751235043821    3.03550624431124
C         1.91388107773809    3.63804706923625    1.37359375270140
C         3.32587939392836    3.04253845117996    1.39503979984346
H         4.07348895893093    3.82989634701393    1.47155938401578
H         3.43390995538193    2.37573687779751    2.25602995868974
C         3.59365079088814    2.25269636908959    0.11241389654800
H         4.61034467187110    1.84895929676478    0.15589852781991
C         2.59615196430933    1.10523655479940   -0.00720961108689
H         2.70405219061099    0.42629381854784    0.84073441346439
H         2.78595751681014    0.53655634205692   -0.91884883540004
C         1.18595239143992    1.68397954698509   -0.03602072312061
H         0.45599280431069    0.87035492771565   -0.11504052875993
C         0.92202917178094    2.46768254468576    1.24997420893544
H         1.03284328965804    1.79803818156298    2.12938280934796
H        -0.10672585985383    2.83436256187899    1.20845524188655
C         1.78208107508609    4.56136320978709    0.16220393720572
H         0.77939240718835    4.98774794067403    0.09998065028276
H         2.49967214773667    5.38186558111731    0.23680410580284
C         3.46116539619483    3.18431396892972   -1.09041256530559
H         4.19452897430262    3.99084784215395   -1.02299351993288
H         3.65552380120470    2.63431870776328   -2.01242250871661
C         1.03534336025083    2.62331955616446   -1.23319255106824
H         1.20528736126905    2.07062156164511   -2.15827766384991
H         0.02042028672536    3.02668125588602   -1.26902922078474
C         2.04839703859089    3.76185385252033   -1.11877028403648
H         1.94271311135309    4.43118721087660   -1.97885372763382
C        -2.54078837226162    2.45279656298779    4.60339278005711
H        -2.38047162437865    1.39521737689534    4.85619823004476
C        -2.71685159208914    2.56548281075639    3.08813907263167
H        -2.85857368277214    3.61782537179786    2.82146108985953
H        -1.81516398097177    2.19555922461314    2.58723550276175
C        -3.93000117230780    1.76812376998569    2.61982210494860
H        -4.04907994354452    1.87767728006120    1.54013175217937
H        -3.77228959559148    0.70964360327728    2.83547934414117
C        -5.18708317190721    2.24638790960633    3.33783535986316
H        -5.38401447625709    3.28816232589969    3.07463001773226
H        -6.04526892027671    1.65346840259828    3.01895124412242
C        -5.00607441228741    2.12961962478202    4.84736515539231
H        -4.86123749910346    1.08043082600453    5.11722198611863
H        -5.90213661882457    2.48572649177511    5.35806450759672
C        -3.79952361605808    2.94458119750975    5.31207512349103
H        -3.96911211483975    3.99777075705152    5.07697892833807
H        -3.69817382218374    2.84222269153431    6.39376702279119
C        -0.91947683439471    3.18724559755173    6.94804394809684
H        -1.83465274931692    3.60435654408262    7.37790129346743
C         0.28915486719497    3.99330036871694    7.42706315313236
H         0.19144710838541    5.03732317436118    7.11600631799289
H         1.19221704568129    3.57335012781249    6.94590920229092
C         0.42900711585761    3.93051783890604    8.94509200778552
H         1.32352903894703    4.47426089051449    9.25396427746680
H        -0.43225465481948    4.42499875811162    9.40087706396711
C         0.49951286170066    2.48817002701905    9.43772298420784
H         0.54168542905160    2.47305147017031   10.52759562401671
H         1.40881516629797    2.01412721224445    9.06157330405494
C        -0.71322132752153    1.70062332817557    8.95257700727590
H        -1.62360526306377    2.12442187768531    9.38284707025632
H        -0.64129762248969    0.66307835903176    9.28360794221078
C        -0.79640312219897    1.74628870126236    7.42990619222171
H         0.12310659096742    1.31181335343659    7.02060517338576
H        -1.64332599392596    1.14812032450666    7.08456633850425
C        -0.01024284462214   -0.58473443421908    5.20726350935548
C        -0.30965719307998   -1.34366782786112    6.33150015371226
H         0.34919334454203   -1.33425093612458    7.18762753669689
C        -1.46465970356545   -2.10615689495206    6.35879192429178
H        -1.69461355767067   -2.69475605660500    7.23393924948820
C        -2.32127987153306   -2.11993818787704    5.27032414637259
H        -3.21445903924604   -2.72519267222524    5.29359739184849
C        -2.03520961393771   -1.35070335567126    4.15326181035350
H        -2.70249782977527   -1.36165288681881    3.30393199198287
C        -0.89214173488861   -0.57358505683598    4.12796774193156
H        -0.66676100216408    0.05124192342371    3.26827612155948
C         2.42785703451212   -0.44509562727351    3.76491612365721
C         1.93304630075423   -1.50522107066886    3.01493479881651
H         0.91024016106452   -1.83219010163159    3.12993879040427
C         2.75623600914796   -2.16323001479986    2.11542091303455
H         2.36035833597907   -2.98465097116023    1.53756213731716
C         4.07641127064921   -1.77843257320332    1.96077957480162
H         4.71287485015164   -2.29576946681979    1.25985568659020
C         4.57949393956600   -0.72845497844665    2.71371617319454
H         5.61044274191163   -0.42762047465259    2.60506152220844
C         3.76094802332133   -0.06691942288742    3.60774529437464
H         4.15923463380025    0.74528233121862    4.20478344731171
C         2.53817810729114    0.12603123640715    6.45790996124246
C         2.88182733729896   -1.17635296601034    6.81101400798721
H         2.48656472961096   -2.00974188479157    6.24627615419887
C         3.74161017266993   -1.39445087909617    7.87104945442988
H         4.00458493126572   -2.40382114543399    8.14877925982846
C         4.27484963022230   -0.32202187587193    8.57050446767170
H         4.94602439038276   -0.49918065240896    9.39664907740407
C         3.96313330780121    0.97537351680232    8.19953753157930
H         4.39571431355934    1.81038173626073    8.73025325759189
C         3.09806304709834    1.19793567405334    7.14310239270065
H         2.86405739273177    2.21259768274325    6.82189708953334
P        -0.95636550987828    3.30894243928143    5.08833575322182
P         1.48349571120484    4.45927362371831    3.03214448255518
P         1.46437146783882    0.46779754718327    5.03404842661268
Pd        1.24357582373510    2.69509711300909    4.44619472975401
H         2.72416509209921    2.59092663713370    4.29397886974612

