59
CSD_code = CIPDIO | q = 0 | S = 0 | Stoichiometry = C20H35Cl2PW | MND = 11
W         1.87025228606646    0.93982299313480    2.96599703849155
Cl       -0.33213120781809   -0.21259499179232    2.62568107376106
Cl        3.35826464274581    1.94848629868987    4.72210007450420
P         0.48796251473691    1.71027288865747    4.94380653689467
C        -1.33009264873309    1.44895967936121    4.96481670622483
C         0.48304413399683    3.54948924277195    5.07049139581236
C         0.86101312026068    1.34053863975323    6.70441495766457
C         2.42591942634673   -0.96525245162477    3.82297739560257
C         2.40186815309927   -1.04543186935373    2.36450082486703
C         3.54592276350144   -0.46602643390047    3.01101530883854
C         2.20034570575535   -1.99096193420887    4.91338115815734
C         2.85817079896537   -1.52951926897594    6.22603387338061
C         0.68586483485484   -2.13985561996976    5.11132559496946
C         2.75519571947993   -3.36515905808917    4.51527446253163
C         2.07791196368766   -2.05242232532501    1.31610935983051
C         5.04634852789053   -0.63502663861233    2.93068045599606
C         5.64832176060916   -0.83926296922995    4.32526544403141
C         5.70146866948372    0.61385965432268    2.32550245231105
C         5.38239237887236   -1.83765785679821    2.03700607065236
C         0.77518688608780    2.49980524024190    1.65447322271772
C         1.93308002607178    3.12311204185086    2.19014765398787
C         3.06639503540343    2.49395668278834    1.61777073084715
C         2.61473299967454    1.49260730619765    0.73121602684480
C         1.20579597429551    1.49793584773385    0.75000884583251
H        -1.77064593102767    1.98974170107229    5.80204857768928
H        -0.09599567218123    3.84180781936282    5.94605104953192
H         0.17251623918370    1.90985991903393    7.32884154512122
H         2.29235048900662   -1.88457259522364    7.08514783450028
H         0.47139166142352   -2.85252450940771    5.90561283994628
H         2.63197370439778   -4.05806310650501    5.34568084209515
H         2.58962678057213   -2.99484860661805    1.50950018509651
H         6.73492758350626   -0.81148921896938    4.26907057499627
H         6.78018762744288    0.47611269444860    2.27849296383089
H         6.46139465795238   -1.97400642765355    1.99505045570416
H        -0.24942293142421    2.83407602452325    1.76751579235021
H         1.96888602946745    4.04137795414132    2.76123745248099
H         4.08343267105905    2.83585467336332    1.73468387134645
H         3.23144554685607    0.90655851569556    0.06380774223951
H         0.56060748518161    0.90404751362830    0.11735838037529
H        -1.55468199442284    0.38893495155462    5.05030575503131
H        -1.76299017320923    1.80201547915669    4.03133312279755
H         0.02527403756138    3.99061676516347    4.18627320770536
H         1.50289694872375    3.91154394784788    5.18313948837189
H         1.88329054194443    1.63602249726614    6.92638605661318
H         0.73743412447222    0.28091469074771    6.90953995121003
H         2.91233442480450   -0.44488651056990    6.25807496592468
H         3.86917929683007   -1.91609355877307    6.31205390162745
H         0.21753095392783   -2.48600835146061    4.19348494077156
H         0.24309117254105   -1.17807162958377    5.36432871393767
H         3.81235491293852   -3.30837639452280    4.27186998949926
H         2.21811111962907   -3.76187196764791    3.65817427840354
H         2.37883868038607   -1.69858384214514    0.32807463543946
H         1.00322979373949   -2.23754361829647    1.30275046384474
H         5.35601953966913   -1.79928898869376    4.73805398504677
H         5.31301425173825   -0.05051397873472    4.99259923310217
H         5.49625149300525    1.47664913670563    2.95404400941165
H         5.34145267642637    0.79676104660193    1.31601548635251
H         5.01592370993534   -1.68024992610122    1.02534315026214
H         4.93803408256131   -2.74977719704246    2.42585789262614

