45
CSD_code = CIPDOV | q = 0 | S = 0 | Stoichiometry = C22H22Zr | MND = 12
Zr        9.29837572614260    3.90807328025408    0.83254854008939
C         7.83152988322708    1.19722113861148    2.59487647990779
H         8.56333139807262    0.99879059755187    3.38260649315176
H         7.21978918357137    0.29581367261114    2.48031437368336
C         6.93261170410253    2.38142602932123    3.00870873294179
H         6.00824605036721    2.36263702354690    2.42549474275524
H         6.65707289862011    2.28022880380706    4.06388696881481
C        11.39097694617091    4.62603385520487    0.97925679968202
H        11.99586635901797    4.35632705857833    0.10164541043673
H        11.88223154274077    4.17675244341175    1.85970894962713
H        11.46777136569817    5.71881460289742    1.08612046069210
C         8.99929776772700    5.07590859531626   -1.02779960065669
H         9.19810419295407    6.14915192780285   -0.89422125677290
H         7.95266490671584    4.98155303695779   -1.36533957797218
H         9.64106531347261    4.74126569801900   -1.85708162153676
C         8.55155190257814    1.51618922877369    1.31326113394120
C         7.94119023378575    1.83815096654856    0.08259483098248
H         6.87288847983900    1.81465421194411   -0.10835775496069
C         8.92823684039132    2.02620219694986   -0.90699312378692
H         8.74634690534996    2.14303792159582   -1.96708788649758
C        10.19415693364250    1.81057756108382   -0.30038911519142
C         9.96071967679549    1.51937883723926    1.10531429846153
C        11.06308241512895    1.24432484793523    1.94472011275262
H        10.91177171485139    1.00296586458546    2.99109862965307
C        12.32467326468840    1.22476801005120    1.40604537456218
H        13.17313962297215    0.99647684203933    2.03500127128688
C        12.54472104405742    1.47928878026585    0.03907943791603
H        13.55462340917775    1.43187733399070   -0.34097093065962
C        11.50737674761417    1.77501872259449   -0.80843852558031
H        11.68419670353889    1.95173020803309   -1.86193557731335
C         7.64705183049238    3.68349200440071    2.77089219500649
C         8.85611298433228    4.08288378059519    3.37786014421621
H         9.37719341391415    3.52825890416658    4.15213120290998
C         9.19559377699800    5.38587215877622    2.95734179176162
H         9.98984755892114    5.99568176703695    3.36680195463724
C         8.18138905837580    5.83071588023325    2.06877375082874
C         7.22150804047361    4.74747271728129    1.92467941335819
C         6.09269633485108    4.93309146620942    1.09572830610483
H         5.35130729723441    4.14869925978672    0.99031294233742
C         5.91069234953464    6.14315407160961    0.47521482429482
H         5.04084490961502    6.30203708711032   -0.14593998093550
C         6.82519305635517    7.20045006955504    0.64216780465190
H         6.62566026048937    8.14097025169019    0.15003003375545
C         7.94761440194866    7.05780071372082    1.41753435196819
H         8.63608359345421    7.88208057030467    1.55530319469440

