71
CSD_code = CIPFUD | q = 0 | S = 0 | Stoichiometry = C26H34Br4N2O4Ti | MND = 6
Ti        8.48210228047564    9.85428912473476    8.81187638017577
O         8.98886066369376    8.25756475962072    9.62310107126082
O         7.19189905280436   11.15763654162905    8.54705072737410
O         8.69008207399220    9.41314214554885    7.19660142150119
O         9.85846419301395   10.81317627858196    9.21346503518523
N         7.78082835854311   10.16868962799941   10.89615360151494
H         8.38716182406134    9.51805826166901   11.39928832476871
N         6.50821725976507    8.55158008292617    8.95257050740929
H         5.85300583192080    9.16259212470018    8.46430896635989
C         6.58129154551501    7.25957117151541    8.26300065432291
H         6.15414403520776    7.36863887060861    7.25924893767621
H         5.97911429237011    6.50051962673191    8.78720777872281
C         7.98670329993466    6.71409265859601    8.09327293010398
C         8.19138994009823    5.65545763112809    7.22089004061306
H         7.34366203779543    5.19342949539967    6.73490859667508
C         9.46869536786952    5.19474671519608    6.94825755734004
Br        9.69802266219806    3.73092154614565    5.75428436302166
C        10.58551194751205    5.80973261545350    7.49154760900296
H        11.58469758392286    5.49265226949440    7.23706530268718
C        10.36963328761036    6.85370228882730    8.36112291265304
Br       11.79140418533210    7.87200831173798    9.08498482386043
C         9.09230561718380    7.31243760911871    8.73378081720686
C         8.10032846691054   11.52598650217003   11.33130162544663
H         7.80871797405752   11.70356720208416   12.37963474004906
H         9.19139019001024   11.63277543571892   11.26252934299264
C         7.46564615085268   12.58676324666918   10.46620749573463
C         7.28695863484018   13.85716033744530   10.99191600648730
H         7.57064276441798   14.05224497911751   12.01609766494430
C         6.75570214626287   14.88115074124981   10.22714604294860
Br        6.52739413701787   16.60853760036882   10.99628279479703
C         6.38057512073215   14.66412217276284    8.91215350405135
H         5.96188744627114   15.45391535721579    8.30841690121080
C         6.55696781074650   13.39958118738281    8.39944762423926
Br        6.06198771615849   13.00457876073070    6.61453484626525
C         7.10293448853378   12.31906835461960    9.12526605527680
C         6.38857680118588    9.77049652586691   11.10427374865547
H         5.75186607686846   10.56258649590735   10.68514246860274
C         6.03815026989924    9.58157224626336   12.58898616209093
H         6.66820996274612    8.79157137976052   13.00749117618783
H         6.23767722647035   10.50064208045283   13.14220007494049
C         4.56855151934153    9.20978105388172   12.76238589125310
H         4.34735126265164    9.06639612747154   13.82109118850707
H         3.94292861779900   10.02805016338679   12.39897878630414
C         4.24592316706994    7.93930470369472   11.98544613569084
H         3.18416854298765    7.70548166691958   12.07674275426573
H         4.80935680330213    7.10208717147634   12.40334548287990
C         4.61199814043902    8.11357849770084   10.51491513362000
H         4.01526030356093    8.92241718445576   10.08326107573608
H         4.37055208635990    7.19749590395199    9.97221759257247
C         6.10304844148958    8.45384483063773   10.35605153702277
H         6.71242622314825    7.66032455345272   10.81076493777895
C         8.74832974526091    9.10061288489591    5.85283719639501
H         8.44652032140064    8.03798094023390    5.73125205026646
C        10.18051682815965    9.25445611862206    5.32099011992254
H        10.48684152481176   10.29708573017117    5.38284058917340
H        10.23400067345043    8.92574466617302    4.28641655507172
H        10.86360401891758    8.65246134827690    5.91827412227747
C         7.77207327456947    9.97826642656736    5.05799414507447
H         6.78361479744556    9.93602934441466    5.51426319480274
H         7.70703386323752    9.63731183227299    4.02827070400160
H         8.10761769700938   11.01334417464584    5.06833432882980
C        10.80473673550953   11.46491231284896    8.43625101135310
H        11.29080540941895   10.72468314433167    7.76981795187235
C        10.12288648458870   12.53394815339152    7.56867111788210
H         9.29570188544188   12.06685852273945    7.02826830419898
H        10.82775416320220   12.96331875400268    6.86023985602352
H         9.72988028171564   13.32916415681683    8.20388081709497
C        11.88019860591651   12.08838985733835    9.33533856033495
H        11.42898200374533   12.83433592323590    9.98819907712588
H        12.64955935658736   12.56225571406723    8.73252081534205
H        12.33526649666747   11.31111777476396    9.94562233296890

