71
CSD_code = CIPFOX | q = 0 | S = 0 | Stoichiometry = C26H36Cl2N2O4Ti | MND = 6
Ti        0.47606781852646    4.34671580985277    5.59902251715343
O         1.59512592449091    4.65701428053221    7.01120984122359
O        -0.16046466469314    4.55629207190377    3.89321750738050
O         0.60689588536361    2.61979518758727    5.52227569983157
O        -1.03675616137300    4.63634088185012    6.41666852683517
N         0.75826687035110    6.58166977950705    5.34848764284207
H         0.02776159949319    6.76246836601115    4.65887986207605
N         2.41771650526279    4.58350289627546    4.44611497883291
H         3.13167159760001    4.51900708448863    5.17405035870158
C         2.51628120289484    5.88772277930607    3.79597317896761
H         1.83405325472066    5.87547813413659    2.93554532156373
C         3.92998206969629    6.23542937939435    3.30795420375307
H         4.61471731811751    6.24562614374264    4.16090458237761
H         4.28032224725384    5.48294043601858    2.59971585481002
C         3.93641005198764    7.60276969762116    2.62890674504350
H         4.94769987563697    7.84573939272336    2.29861631068941
H         3.29621999631797    7.56723619855291    1.74480156805628
C         3.42980375596929    8.68177264450720    3.58030103854425
H         3.40540179085006    9.64514911839085    3.06838916006248
H         4.11332671630266    8.77116653657559    4.42743671094534
C         2.03580013756484    8.33216438727180    4.09406855289162
H         1.33239646871495    8.30198094805799    3.25719708252864
H         1.70263725662518    9.10292060884517    4.79123904175853
C         2.05150782875317    6.96556838550510    4.79130984546845
H         2.76547789915480    7.00147356830760    5.62684939781899
C         0.41468432583181    7.25435163366107    6.60155976205241
H        -0.56682755337838    6.86768583458419    6.90751020398580
H         0.34076612470247    8.34726616666829    6.47710852118903
C         1.41278664878158    6.94432532586467    7.68620059601052
C         1.82038086695126    7.93814329407380    8.55975058795634
H         1.44042242778257    8.94313744542464    8.44494969828012
C         2.70592811570753    7.65848040086048    9.58670962228923
Cl        3.19746298519550    8.92753054905607   10.66086258350613
C         3.20006570471315    6.37613050527110    9.75687070640397
H         3.88711994992468    6.16196318083482   10.56075489586128
C         2.80801013723203    5.38173727071501    8.88675722005436
H         3.18357338411722    4.37554383023382    9.00580269053345
C         1.90841521808578    5.62451093383120    7.82999818763436
C         2.55058213450382    3.43520128302996    3.55385124676055
H         2.57818880768701    2.54135634829855    4.19102734557667
H         3.49090138082974    3.47186994422619    2.97772824503514
C         1.39721877935584    3.27998932368426    2.58956597416217
C         1.61333211747600    2.54281852077541    1.43475910346233
H         2.59801443556914    2.14629705455968    1.23195541004627
C         0.58724460714402    2.29896322539699    0.53982661280320
Cl        0.90361742476196    1.37555690424198   -0.89244286119353
C        -0.68542791306426    2.78683649232755    0.78333373154336
H        -1.48633910194721    2.59085520384887    0.08753654566166
C        -0.91034064784862    3.52724859648808    1.92325679739273
H        -1.89695065382377    3.91625272827699    2.13240283535480
C         0.10728009695565    3.79577120724373    2.85925384088623
C         0.16428810489760    1.56678971496713    6.30117801192472
H        -0.90723159847714    1.37846207126584    6.07389942604741
C         0.29822427510387    1.90625767640884    7.79304766361227
H         1.35350847542969    2.01396777530291    8.04411488027817
H        -0.14217900904062    1.12505485560578    8.40944798772775
H        -0.20106438685158    2.85978443672208    7.98029606707018
C         0.95852176785539    0.29632752202877    5.95716823826108
H         0.86639047151825    0.08468743172078    4.89359359616708
H         0.58609473154285   -0.55331067340699    6.52322486085108
H         2.01036013566238    0.44959543051008    6.19393619531311
C        -2.32463115585077    4.29778925669833    6.02538807450108
H        -2.28755198238435    3.39520032742585    5.37898529929511
C        -3.18525703661094    3.98913238036591    7.26034341303601
H        -2.75170989146262    3.15944870321231    7.81406302779702
H        -4.19847605353794    3.72939499081092    6.96452575371305
H        -3.21373573923590    4.86187468668557    7.91035646246438
C        -2.94939156486923    5.44460326651053    5.21255693159415
H        -3.01651758264935    6.34000121003713    5.82998797717270
H        -3.94631573739917    5.17263700273377    4.87416188429179
H        -2.31855927246334    5.64753401394408    4.34729861547519

