67
CSD_code = CIPKES | q = 0 | S = 0 | Stoichiometry = C36H24FeNOPS3 | MND = 5
Fe       13.96130510324723    2.42849199864007   11.93173320939616
S        11.79622855813787    2.43047976406669   12.49825357293668
S        14.21075401659563    1.42528868860426    9.86788508029183
S        15.58180291481939    3.75870084938660   12.68304132047941
P        13.43028297009903    4.16405637084613   10.75189643915439
O        14.72900162805137    0.07390165412583   13.11311586497520
N        14.39979283902888    1.09083179076797   12.66446199029320
C        11.63810530365236    4.36977761924412   10.59469286498953
C        10.91265509042456    3.54642255347532   11.47016176007781
C         9.51215051646569    3.59493266348691   11.45726453391893
C         8.89027939608148    4.44418802923891   10.54489848278494
C         9.61387115457252    5.22486914256554    9.66005524645264
C        10.99802117434227    5.18656104274303    9.67601666136640
C         8.69451830963035    2.76897962027937   12.35780681297808
C         7.63131113569476    2.02920262182535   11.84594781438367
C         6.85309796403546    1.25154334977365   12.68246869218901
C         7.11906550751515    1.21083241398898   14.04115797937022
C         8.16814436961750    1.95122857987784   14.55914574626174
C         8.95269172796285    2.72525985063989   13.72461900303523
C        14.07137909497740    4.02046293008753    9.06906791233160
C        14.39697265887973    2.70783222319010    8.69622069349424
C        14.83866541335205    2.46258986444388    7.38708525531783
C        14.94813752672589    3.53715401446597    6.51188503736165
C        14.66155204510148    4.83562849442311    6.90378600722878
C        14.22256132304806    5.08459989679944    8.19122653420240
C        15.19045272903943    1.10950632864743    6.92452025341047
C        16.10098875979885    0.32596655906023    7.62648797243137
C        16.43539996093296   -0.93445550943677    7.16788779063694
C        15.86499090387721   -1.42862391716945    6.00688744162476
C        14.96193347102311   -0.65265495794797    5.29991137559232
C        14.63021191440085    0.61108217322214    5.75203919892931
C        14.15575217064188    5.69056039324770   11.39971882732351
C        15.26569878407433    5.42911676780454   12.21706279403780
C        16.02484572985937    6.49452107485267   12.71367178788337
C        15.60947549035561    7.79093070928546   12.41320034190286
C        14.49136642351259    8.04035783765688   11.63727913060666
C        13.76129054174250    6.98605185296587   11.11114073142300
C        17.22504333634070    6.28528295116588   13.53798449037503
C        17.37972745479771    6.98125583444417   14.73369156333281
C        18.51169385194826    6.80066962278789   15.50654103006417
C        19.50681441672695    5.93256789865652   15.08977484485587
C        19.36409926542980    5.24404995941678   13.89670225075660
C        18.23052999350146    5.41616107596452   13.12499509093992
H         7.81090436934530    4.48635620399237   10.53505593369624
H         9.09948361093631    5.86137184384547    8.95592839967848
H        11.57554747934373    5.76942556298882    8.97302134092791
H         7.43389154772847    2.04607523744821   10.78358747973714
H         6.03806742820346    0.67276435700777   12.27284130939855
H         6.50999939301748    0.60303870735467   14.69384928037367
H         8.37685406761273    1.92580089156772   15.61845848024593
H         9.76122644513918    3.31219601761746   14.13341059360487
H        15.29598703378287    3.34746165328871    5.50675585909130
H        14.78511011410346    5.65084818283567    6.20704343908099
H        14.01408461273809    6.09282189489528    8.52055939590814
H        16.55516818966323    0.71272744737087    8.52590034242996
H        17.14430344127367   -1.53384186115899    7.71978777432763
H        16.12356724334940   -2.41586063015187    5.65319545369328
H        14.51355499374017   -1.03377127497401    4.39378362714371
H        13.91620443090208    1.21215378281417    5.20680499461314
H        16.18864352766953    8.61775254306997   12.79765747752036
H        14.18872871773452    9.05739933175045   11.43812473415410
H        12.87997260561048    7.16656724620290   10.51268705857351
H        16.59716640170791    7.64805437739518   15.06699526134883
H        18.61716488087738    7.33831302658132   16.43758447485023
H        20.39123987729526    5.79320424519852   15.69369001372934
H        20.13947971127363    4.56920664206412   13.56555208528452
H        18.12568693689168    4.88567188933468   12.19073375922128

