27
CSD_code = CIPPUN | q = 0 | S = 0 | Stoichiometry = C10H11FeNO4 | MND = 7
C        10.98865330866515    2.42460062918183   13.19248112010732
H        11.29588399191986    2.19140958021904   12.17027005354353
H        11.71489514231342    2.00355430775986   13.89047401158264
H        10.94832134766204    3.50551806814891   13.31806381339466
C         8.60681794494682    2.73325949922566   13.68750672193180
C         7.30627093193174    2.02749948448720   13.85579191397576
H         7.41053414763958    0.98927431853064   14.16701969655990
C         6.24907204021663    2.81497946663518   14.42817177751359
H         6.46988999075131    3.81413335231111   14.78752404888279
C         4.95162937777011    2.28901049030437   14.44914255257398
H         4.12152508141690    2.88783492928564   14.80970843269174
C         4.72550585784364    1.00680126247592   13.87110127719884
H         5.40980358906599    0.20670355863855   14.14856309773929
C         3.30654118870114    0.50961885871989   13.75524503417703
H         2.96812055866413    0.11542199013767   14.71585833761253
H         3.23904531154924   -0.29256284348421   13.02461528471388
H         2.63202458262892    1.30776774199898   13.45387644386869
C         4.28762767413422    2.74378886702532   11.50752503945089
C         6.27649369374122    0.89972642626468   11.41365372639366
C         6.56023377570112    3.63648167521784   11.58117724970478
Fe        5.73875878414723    2.29316581446697   12.39517757234602
N         9.66788440486640    1.91562744076077   13.46529462411167
H         9.51713602127393    0.92645455508162   13.35047751929226
O         8.71580210256161    3.94584281265133   13.74791486545669
O         3.37450342371230    3.02152932725743   10.87296692656689
O         6.64292713317482    0.03791636297877   10.75596250545595
O         7.08009859299979    4.45164202371928   10.97523635315301

