45
CSD_code = CIPQAU | q = 0 | S = 0 | Stoichiometry = C17H22BrFeNO3 | MND = 7
C         4.38018983228835    5.94822577309469    4.81011097201078
H         4.38778285768433    5.55905062644620    5.82581957992979
H         4.14179799596494    7.00825435734887    4.84920885035686
H         5.38508979098488    5.84811936212097    4.39372263365935
C         3.38817270954352    5.21055174225225    3.94773355077456
H         3.36115112626188    5.60579583276378    2.93436855056088
C         3.25322405327731    3.80594241570861    4.11229357840285
H         3.86006682459344    3.27390779783189    4.83797946889261
C         2.25743739418772    3.12203496434970    3.38717297489590
H         2.09614319188688    2.06178973552680    3.55756776843558
C         1.41950813465527    3.85041552845455    2.49918445888925
H         1.87922642454774    4.59355857934523    1.85069518499844
C         0.28391543306094    3.15048327682453    1.78396681270186
H        -0.02000871394844    2.25312131331360    2.36009264944684
C        -0.91732840883667    4.10172816218190    1.68921241345900
H        -1.21578362778414    4.38771659613956    2.70000748476451
H        -0.60023880894741    5.00174126089037    1.15963937121415
C        -2.08254751327360    3.46306419944055    0.94700242822737
H        -2.43751247175565    2.59038873359836    1.50056508845175
H        -2.90918699186520    4.17037611097670    0.86587924358474
C        -1.60125968851513    3.03639473617858   -0.43250957525023
H        -2.38989746863069    2.51639638122922   -0.97816257329788
H        -1.30803492044790    3.91696067278171   -1.00613383384386
C        -0.39790711774186    2.11680392076376   -0.28178200557075
H        -0.70493756886608    1.19491576525774    0.24737788545556
H        -0.02666248888995    1.82879289536184   -1.26832927562864
C         1.88732467934816    1.95917171083803    0.37255969811608
H         1.69514590013697    0.92590643084785    0.71525433887739
H         2.63930188990884    2.40092468669392    1.03100491194322
C         2.45499972848544    1.94959922357899   -1.02374489158282
C         2.65765935343583    0.79888939422950   -1.64796162322628
H         2.42546785467306   -0.16268780391060   -1.21924309742165
C         2.76343340699729    3.29595199232813   -1.58858656435663
H         2.85742795247662    3.26541321109676   -2.67101635334618
H         3.70160741159072    3.66494820557501   -1.17151897847564
H         1.97181189933527    3.98724377639401   -1.30735558965603
C         1.52640951302435    5.08075707484373    6.25330848741494
C        -0.13713283881067    3.85444535449872    5.07230106939767
C         0.66924453825291    6.27155547293511    3.93739063983049
N         0.68753394293698    2.78005831457802    0.42379906576720
Fe        1.31234268461015    4.70787096279843    4.54837600862551
Br        3.40635964978472    0.64890770143714   -3.38540756343458
O         1.59777303705886    5.35728466412862    7.36434615274388
O        -1.09914345886210    3.36570915742516    5.46348950019881
O         0.21763287615998    7.26701972949230    3.60142110305698

