68
CSD_code = CIQHEP | q = 0 | S = 0 | Stoichiometry = C28H23ClF12O2PRh | MND = 8
Rh       -6.56161879659467   -0.89099675856976  -13.63446940949646
Cl       -7.11488910639044    1.21576268390409  -13.99205330312695
P        -5.84793036912090   -0.01785966329818  -11.67068158386436
F        -2.08477110548674    2.56487197228908  -13.13910810955652
F        -3.73900175218707    1.53931894298521  -14.04365822554615
F        -1.89626852992540    0.49965250416238  -13.68431678552994
F        -1.16014680012387    1.53154712142924  -10.84669961302128
F        -1.56213889148217   -0.55471932098320  -11.16310999245243
F        -2.55832254811049    0.50107348309813   -9.58576517818252
F       -10.43522199620508   -0.88010299854709  -11.05196210855967
F        -9.50160070592390   -2.68019156477126  -10.36559807796968
F        -8.89087687938939   -1.80328594384776  -12.22221226073365
F        -7.84237835310971    0.72050093511950   -8.37623623119634
F        -9.56525767447004   -0.56466810672986   -8.35060742867160
F        -9.53954880342407    1.18578611421813   -9.59751391315452
O        -4.05600124147626   -0.16889996288114  -12.00282314895699
O        -7.65786479303855    0.17531558484320  -11.25369431949792
C        -5.50873585342148    1.69217878189579  -11.14016592168080
C        -6.43570504367003    2.62916906031311  -10.70827507252731
C        -6.00190406466876    3.88627054832019  -10.32490906305273
C        -4.65736911673082    4.21730657847148  -10.37097835120486
C        -3.72544716548492    3.30093332012778  -10.83175386900921
C        -4.16889910354751    2.05046485351737  -11.22222660575469
C        -3.30160793410476    0.95676773525197  -11.79825576576060
C        -2.74308820897171    1.40239748537744  -13.16850957133200
C        -2.13212893613337    0.61350805605779  -10.84917904131676
C        -5.79722195799771   -1.22388818402908  -10.29413167974783
C        -4.68641574864415   -1.93439421647009   -9.86389249438787
C        -4.82044306228820   -2.87508262602883   -8.85731087256826
C        -6.05613546944710   -3.12160796301252   -8.28168099265080
C        -7.17898545821958   -2.43388991721364   -8.71463052459086
C        -7.03710419708771   -1.50126368609612   -9.72704551063021
C        -8.15567288452278   -0.65248818822786  -10.29428493873093
C        -9.26371363298584   -1.50486860805098  -10.96349079046308
C        -8.78958435460294    0.18108256117338   -9.15214615232079
C        -5.24890637378388   -1.73484979836340  -15.05948770585118
C        -6.54889565596234   -1.72249845466704  -15.70927228489683
C        -7.40840318703342   -2.52193762653872  -14.94344712277519
C        -6.63970204223145   -3.09506314788702  -13.83639624242156
C        -5.30264966310340   -2.66681467817477  -13.95220627763664
C        -4.01834262485627   -1.14549514814433  -15.65051293814106
C        -6.82853119927182   -1.02266724844243  -16.99881033654103
C        -8.82254748022110   -2.87268351582432  -15.26136178613490
C        -7.12707581285531   -4.15732570101166  -12.90455134657678
C        -4.12339965887685   -3.17322074941135  -13.19000023229018
H        -7.48411205972569    2.38568479529873  -10.69460670483368
H        -6.72366995926936    4.61479652686673   -9.98863554587116
H        -4.32930481180094    5.19749935328693  -10.06144802594432
H        -2.68069111481016    3.56390539168452  -10.89089482786758
H        -3.72618532500866   -1.75583587788323  -10.31515208843162
H        -3.95106230290747   -3.41797186146939   -8.51866945111797
H        -6.15186956279359   -3.85143092790924   -7.49290138769936
H        -8.14167400403801   -2.62819765066956   -8.26849063472165
H        -4.19225155385857   -0.11719660555895  -15.96169428437950
H        -3.74210787229842   -1.72268832311599  -16.53493596205149
H        -3.19184985901431   -1.17288768652314  -14.94750849054940
H        -6.48688697050776    0.00985415128562  -16.95312446966871
H        -7.89064106992984   -1.02296377021531  -17.22533444894464
H        -6.29741264443143   -1.52418965427706  -17.80885052983059
H        -9.26382749090209   -2.14340632848218  -15.93538415410107
H        -9.42943862857394   -2.92006243848547  -14.36125559813810
H        -8.84944433128739   -3.85291544973409  -15.74094554384263
H        -8.21160164369260   -4.18929198165435  -12.86957248385342
H        -6.74987448388808   -3.99891862972789  -11.89519613571187
H        -6.76738644602519   -5.12754999361388  -13.25169599956106
H        -3.44855341156998   -2.35963089537037  -12.93802953509444
H        -3.58136666978918   -3.89310781596315  -13.80519319250272
H        -4.43523354667923   -3.66303887311129  -12.27175732473255

