57
CSD_code = CIQJEU | q = 0 | S = 0 | Stoichiometry = C29H24AuBrN2 | MND = 2
Au        9.92519087235202    9.04012361427651    8.87571855236377
Br        7.62142745023204    8.73276541529320    8.46606111962048
N        12.86800879644711    8.51578507848664    9.60550453987891
N        12.47110129105813   10.56540214436589    9.13520386486331
C        13.80373070576448   10.48499635391605    9.43413195254308
H        14.44766736587793   11.33996076672166    9.41343650522707
C        12.70480068604915    7.10743096567702    9.88580130892095
H        13.23981093506047    6.52719470695635    9.12594019126193
H        11.63853088334104    6.87537656029594    9.80406606326570
C        11.47756213974489    8.09373466059540   12.40145663238145
H        10.99505563164981    8.30275330835493   11.45842956964555
C        13.24585148602584    6.76953596463423   11.25278738963076
C        10.99674207400453   13.30707140359143    7.16107882261729
H        10.93795932990044   13.62971677526802    6.13192594829282
C        13.24282220886894    6.98945138737737   13.67619135000176
C        11.76460316790862   11.75156117370635    8.79868261725442
C        12.65408683830501    7.28480153575571   12.41852960892690
C        11.70839765454473   12.15776710296860    7.46697727604551
C        14.37718473498017    5.97121375361721   11.34891785470363
H        14.82165707958154    5.57543237217042   10.44587238733852
C        11.12667052012873   12.46714129694144    9.81123265131990
C        10.34969005422982   14.04158892759578    8.14499706370372
C        14.94404318514684    5.66677464296864   12.57002686864883
H        15.82117118262028    5.03821262040894   12.61745084963352
C         9.55468148482368   15.25922409423643    7.79156772577731
H         9.61604534034488   16.00608522335588    8.58041154637004
H         8.50590140010947   14.98704376878880    7.66754515628119
H         9.90311874329131   15.69623203816518    6.85885783272347
C        14.39823250710003    6.17198238628160   13.74942483861243
C        10.94240887795448    8.59076718765781   13.54037629727386
H        10.04752586712868    9.19565726293706   13.50459455209883
C        11.52376674130553    8.32563609891673   14.81288468862488
C        14.05400592573205    9.18795099084325    9.73234079192267
H        14.95930452140181    8.69846851179696   10.02560639241203
C        12.67984103184098    7.50976549773956   14.86775939917223
C        11.17839036484008   11.98756559616636   11.22977595281659
H        10.59043115586729   11.07521635763204   11.33575334916812
H        10.77028448196670   12.73733775758440   11.90150829906709
H        12.19942541967097   11.76056794220188   11.53571364641801
C        11.88912675634563    9.35913339148711    9.23774592115973
C        10.42588328234541   13.61047358472906    9.46265126331877
H         9.92012782329123   14.17213522731819   10.23433390697169
C        10.98466920059635    8.82971778156318   15.99746744075476
H        10.10134796703102    9.45005465519199   15.95143249616295
C        13.26847984236741    7.21549654675010   16.12305255046308
C        14.96909737301382    5.89006897990744   15.02523635570350
H        15.84858664869322    5.26291119419752   15.05906164958475
C        14.42969712949488    6.38883185056233   16.16055279674238
H        14.86789852245198    6.16974555883417   17.12381806455064
C        11.56750061802337    8.53754404622664   17.21652940870401
H        11.13743696200531    8.93328666313328   18.12498424564992
C        12.38205818576363   11.34863402922698    6.40100603660720
H        12.27738502494771   11.82934812640430    5.43252461520882
H        11.93294550580322   10.35638760802910    6.34414337703943
H        13.44337964881416   11.22350930673640    6.61610580863745
C        12.69567127749165    7.74023210523165   17.28246880064929
H        13.14477809429270    7.51469609821201   18.23904380527166

