41
CSD_code = CIQJAQ | q = 0 | S = 0 | Stoichiometry = C21H16AuClN2 | MND = 2
Au        7.86924243479124    7.23992989232725    5.04280940330806
Cl        8.93790282571977    5.78329243148761    6.37316432549941
N         5.63132647439081    8.92801068730214    3.91244988837882
N         7.43694229257825    9.16843773568514    2.78290851495979
C        12.60487461163030    7.57895722860292   -0.88736425638359
C         7.99007365468053    6.20755036391530   -0.12093532438895
C        10.15448783392188    7.86476898782229    0.53222004733043
C         8.93016456586945    7.98699166861178    1.21141059301452
C         9.32326206094396    5.11188817211966   -1.88183986239912
C         4.68405575231551    8.51783303043163    4.90969079972602
H         3.81820618804884    8.04819870205788    4.43950909372486
H         4.34767077918004    9.37848540392341    5.49123668138567
H         5.16745188166119    7.80219211101630    5.57387484406333
C        12.46235607683118    8.52557359751067    0.16661052502291
C        13.89913482882309    6.49350850609852   -2.61078578363337
C         9.17816143840024    6.06902292601020   -0.83478879731709
C        11.29783453005866    8.66263964526338    0.84238362551109
C        10.27529325828841    6.90270552016185   -0.50391989449521
C        11.49405292074108    6.76382722110302   -1.21319168497133
C         7.87509913275750    7.15055721628123    0.88143681707622
C         6.48714310289827    9.94252772176194    2.17528461533400
C        11.61086323131599    5.80628747217154   -2.25168180824063
C         8.78607528682583    9.01836147160889    2.31176240022430
C         6.91630152974218    8.53660887429511    3.85049967491657
C         5.34730940953720    9.79452674137935    2.89102555617929
C        10.48522789116103    4.98729125393750   -2.56174685046054
C        13.79727552520781    7.42761355602782   -1.59695098049914
C        12.82100111690716    5.69080138346535   -2.93685732924001
H        12.90911319951431    4.96142012551470   -3.72922818736604
H         6.93993030110430    7.22418644676194    1.41709178852810
H         7.15202790732245    5.56752214896137   -0.35488155167255
H        11.23579535657201    9.38283175380459    1.64334723260604
H        13.31695211698790    9.13652009120341    0.42073309121517
H        10.58817921905434    4.25990418536303   -3.35427191757033
H         9.40201404602809    8.71803952069395    3.16730665000791
H         6.69336145352498   10.52251976746979    1.29968433742693
H         9.12832585714517    9.99392428841276    1.95147178932105
H         8.47423215113656    4.48580939399849   -2.11656832316328
H         4.37813566087206   10.22918149848877    2.75957493383611
H        14.82851841842643    6.38782957405713   -3.15127586126297
H        14.64372367708693    8.04952168289116   -1.34349881553485

