48
CSD_code = CIQLAP | q = 0 | S = 0 | Stoichiometry = C15H25N3Se4Zn | MND = 5
Zn        7.42909589126916   24.04709380056688    3.45709724516684
Se        6.06937763724341   22.42461086337698    4.91177738700678
Se        5.50391544348606   22.98584435376856    1.81060954410340
Se        9.37836193046509   25.05405321951548    5.11511774904982
Se        9.46006946751129   24.51388114664069    1.95988420640256
N         6.36582837224035   25.89939835823519    3.53668888757854
C         6.09230953766238   26.56287591681665    2.42077250729826
H         6.43217347951857   26.10640680940198    1.49957359467140
C         5.40792540159616   27.76512920573952    2.42033486196751
H         5.20795061686409   28.27299388586549    1.49038585950998
C         4.98949108710411   28.29124216092383    3.63249445116399
H         4.45073322808373   29.22651395351657    3.66996888748453
C         5.27542486358838   27.59369013967564    4.79560142443056
H         4.96960427600108   27.96471163657184    5.76078489996465
C         5.96931530875741   26.40070132258736    4.69929868645029
H         6.22486983086915   25.82376221839500    5.57904439208132
N         4.10218179392801   21.17028470481882    3.38442922230480
N        11.60779970833269   25.41738982833450    3.49112580054156
C         5.08013104743367   22.06267676709586    3.36109732779679
C         3.73340823193905   20.45467394065110    4.59178077345554
H         3.89686585855895   21.10959238451666    5.45406088344264
H         2.66816474465870   20.22091063918213    4.52990613165747
C         4.55268546505752   19.17962830918480    4.75739229769744
H         4.42484938265373   18.52161566672996    3.90079215117403
H         4.23975668691577   18.65485191073902    5.65520070102695
H         5.60715268102585   19.43066146223935    4.85179874716487
C         3.34077625262067   20.83010606945743    2.19711568189697
H         3.99209488715600   20.92650959715242    1.32275210366761
H         3.02711977848650   19.78782513005002    2.28677651902475
C         2.13016595969896   21.74099688480902    2.03051323499763
H         1.47928001372603   21.68596039003640    2.90040405321152
H         1.56726902034905   21.44669151076624    1.14970572593521
H         2.46078672073283   22.76960477312036    1.90390615804726
C        10.33676752006176   25.04872510549262    3.52880572370450
C        12.38401438145599   25.40130621047899    2.26607886245638
H        12.02640297283293   24.58273677474979    1.63203906962402
H        13.42571385079366   25.20738146954765    2.53095541487747
C        12.26133002975954   26.71994163930098    1.51102926653808
H        12.58805068118706   27.55302443075170    2.12952339289958
H        11.22471156615132   26.88237802936909    1.22308386132341
H        12.87029983645443   26.68789778450970    0.61249330744866
C        12.32166690595410   25.84575146232512    4.68032627504069
H        13.09080766524277   26.55717168646767    4.37176302667570
H        11.62000051637192   26.35617615089387    5.34711130012940
C        12.94581383225682   24.66104137297209    5.40861636992071
H        13.49348054978384   25.01041142912941    6.27890006873339
H        13.62700923344568   24.11870918913208    4.75656228850003
H        12.16349585277294   23.98215830439243    5.74071967474401

