65
CSD_code = CIQSON | q = 0 | S = 0 | Stoichiometry = C24H32Cl2N3O3Rh | MND = 8
C        -1.98778628862082    1.12591919915306    4.96481261148127
H        -1.12939425439460    1.75312432332303    5.16767922063581
C        -2.54877799883215    1.07881651612505    3.70249914957941
H        -2.13608555937602    1.68641902901719    2.91165218544616
C        -3.63770781743120    0.24643272404841    3.46286901009791
C        -4.08947841660397   -0.52844265418685    4.52673137036967
H        -4.91570173370780   -1.21094019462744    4.39856537284611
C        -3.47324789389416   -0.42460634658574    5.75929615974372
H        -3.79713210188330   -1.03273102532102    6.59402544543768
C        -4.34160411750679    0.24008067206411    2.13923334812390
H        -4.79944044787860   -0.73311487434320    1.95600556584401
H        -3.64222033080630    0.46556037134160    1.33276556788904
C        -5.47485822828782    1.31607761034097    2.10594362644080
C        -4.78531569453592    2.65554255653450    2.27745137675087
C        -5.41891736963258    2.66238610943447    4.66865470460531
C        -6.43974486518360    0.94156900221882    3.21392213351655
C        -6.19562847496111    1.26885204816493    0.74775069760250
H        -5.46481784718995    1.45872077838885   -0.03916893277605
H        -6.61133248011892    0.26981483566505    0.61142425413687
C        -7.31839023567841    2.30143924100552    0.65788408369806
H        -8.04347449318411    2.12508440696550    1.45627796820100
H        -6.90561526483759    3.30459474898885    0.79003216351193
C        -8.03305651135754    2.22843659175094   -0.68966486692291
H        -8.44688399125512    1.22683298673914   -0.82237490592023
H        -7.30997180299550    2.40060923248563   -1.48936718521563
C        -9.15269937824981    3.25663438623267   -0.78777115229093
H        -9.89479099220267    3.08818521990335   -0.01044199193213
H        -9.64700712179763    3.19091594421896   -1.75366549708144
H        -8.75739526245974    4.26347472173209   -0.67245079828648
C        -0.92229076132088    2.21473992405534    9.12274386316552
C        -1.06553533478445    0.99758623868486    9.87962821630546
C        -2.46339056160490    0.64409394691237    9.88531599115855
C        -3.13841026873464    1.53166673761290    9.00901006806827
C        -2.17827241873813    2.50861247140162    8.53114399528958
C         0.33091102176025    3.02153235219387    9.03076875544146
H         1.07563020037929    2.50517941995458    8.42372773727005
H         0.74562681923339    3.16667604103923   10.02769870134162
H         0.13379875332075    3.99231721385801    8.58388161558367
C        -0.01953320666604    0.40335148092535   10.77099964457858
H         0.97049137052947    0.54036985804076   10.34203988278767
H        -0.19365412337363   -0.66168334541835   10.90667178098336
H        -0.04724724489845    0.88934980049660   11.74893122767293
C        -3.06678690254966   -0.44209783133406   10.71385285994503
H        -2.70502494776250   -0.36358152348944   11.73843224893701
H        -2.78256605319427   -1.42176706159726   10.32721475906446
H        -4.15128793500551   -0.37096963398340   10.71435153312874
C        -4.61677868470400    1.58880630582633    8.78518229333412
H        -5.04710687116004    0.58951046642888    8.76269351021471
H        -4.85483861468486    2.09610647429910    7.85328246519059
H        -5.08417321459121    2.14471994955423    9.60034277179726
C        -2.50872091004452    3.73410719099138    7.73883628384697
H        -2.71779047705982    4.56048459479768    8.42102345277184
H        -3.38916726003545    3.57895016178020    7.11977262896807
H        -1.67572144797966    4.02065952757440    7.10003052310811
Cl        0.46254383209195    0.40899857640277    6.76410298602955
Cl       -1.63474172123263   -1.80529476652687    7.87085862144092
N        -2.44637718308718    0.39583923035585    5.98115439236551
N        -4.77399161490611    3.16341911942715    3.56236533520789
H        -4.22366615399647    4.00315858787547    3.71299199509191
N        -6.26923990679558    1.61331565691865    4.40939908241628
H        -6.83392917319187    1.29621756182708    5.19119798909715
O        -4.21363281926073    3.23046699291925    1.39088588173030
O        -5.26739952245151    3.11925601323216    5.77206931425109
O        -7.26320282065068    0.07216384237226    3.11716626480208
Rh       -1.56654686798389    0.50395026385146    7.86016064206472

