93
CSD_code = CIQSAY | q = 0 | S = 0 | Stoichiometry = C35H49MoN2P5Si | MND = 6
Mo        7.43563033346239   13.11662884537182   13.73317731478113
N         8.54073892378369   13.90283897321659   12.47468873792211
N         9.23036334654761   14.39815713126298   11.74387894656360
P         6.99026369765822   11.52294113943387   12.03413735527662
C         8.61795632958914   10.64790376869182   12.15051394711388
H         9.26324969342332   11.06959900002695   11.36533018608760
H         8.60046084774614    9.55869963973167   12.05945778006045
P         9.13780235299562   11.42017903180840   13.75107895534037
C         5.78056982809603   10.16698229766010   12.09103405818865
C         5.94304131199844    9.15278149368348   13.02966290256574
H         6.81710714794870    9.16560427626951   13.66789647812354
C         4.99406018277312    8.15671522177159   13.16150489872689
H         5.13647373188478    7.36667371309210   13.88565003277488
C         3.85633069049251    8.17793569160175   12.37009362688067
H         3.11216930487344    7.40149083956129   12.47154844340947
C         3.67072112715212    9.20202706647305   11.45524858166409
H         2.77810260871074    9.22607126603633   10.84625218666499
C         4.62390088349315   10.19429527098757   11.31599593633509
H         4.48112327034768   10.98942407760306   10.59614322211182
C         6.98996584050062   11.84459279133944   10.23643972799559
C         7.03141993305583   10.77064631693215    9.34850998106408
H         6.99538886567894    9.75849090236485    9.73162291964900
C         7.10925182671605   10.99522272986406    7.98842372550553
H         7.13607786088492   10.15837583660485    7.30479539362085
C         7.15717988125343   12.29208164470913    7.49908775400916
H         7.21922612311102   12.46471580946243    6.43438928378328
C         7.13286356978700   13.36215321679636    8.37571169870744
H         7.18168097630476   14.37357206278934    7.99871314718581
C         7.05166917265474   13.13828192749670    9.73954783559661
H         7.04427370216252   13.97087921777818   10.42854426302478
C        10.90544702611343   11.71389887960804   13.39078642172300
C        11.47846597157677   12.94187104253154   13.67455372008776
H        10.85089394649557   13.71316050278999   14.09737295797074
C        12.81755644010347   13.16994635671995   13.41096628586602
H        13.25691470033428   14.13293900689077   13.62936735397150
C        13.59144528356203   12.16180104304437   12.86383626071240
H        14.63699941057282   12.33490485492711   12.65369064277117
C        13.02614286672970   10.92633152282792   12.58452726572390
H        13.63318056486921   10.13878184991179   12.16050447005163
C        11.69007651153808   10.69925091363769   12.84842471932648
H        11.24991262682394    9.73278366349813   12.63880771928033
C         9.46946476308534   10.03313961716264   14.90080916197511
C        10.00325799858968   10.43258756193417   16.12480636795530
H        10.16577575034092   11.48998241233854   16.29320429593753
C        10.32172306363545    9.50777047161155   17.09803149634209
H        10.73731941686099    9.83263753679486   18.04144292650067
C        10.10692173883827    8.15870134219573   16.86086330412647
H        10.34939300618098    7.42877835429004   17.61927835864698
C         9.58805717234079    7.75009224162624   15.64561332254032
H         9.42912105817500    6.69829145505371   15.45258140834657
C         9.27434369940794    8.67878740987448   14.66649994916419
H         8.88543011424865    8.32414193853299   13.72233015524668
Si        5.32518641256993   15.10302336843807   16.20390287178240
C         4.25540627557593   16.05930336115263   17.45169564515514
H         4.69633977499294   16.03529131254421   18.43952752857716
H         3.26314936550489   15.63300940250805   17.52220485559651
H         4.14991403713483   17.09633707827485   17.16157734291610
C         5.59606476029351   13.32776500997262   16.82241467394483
H         6.43572376352002   13.32098511427047   17.52121584972650
H         4.72561534186998   12.90643457835482   17.33087087187647
P         6.06178618641272   12.22283737324057   15.43643800001408
C         6.65920477329257   10.81379943723763   16.43900848633988
H         7.62770805849308   11.07139816196455   16.86755608271249
H         6.78597082615681    9.93857440873542   15.80333611260798
H         5.95040604445593   10.58540092584055   17.23760796263329
C         4.40193086637772   11.56294727470383   15.03171081961992
H         4.50384049296225   10.78882243581570   14.27255630782885
H         3.77441564706680   12.35954874016669   14.63748034550192
H         3.93562297771733   11.13834968016012   15.92287371113974
C         4.48776969761628   15.13000768035477   14.49676725203729
H         3.61229196674238   14.47867865965151   14.49526711997494
H         4.15632390151523   16.13288368410481   14.21618505541359
P         5.65264232813799   14.51952458736739   13.20578500859147
C         4.42726665115927   13.85533594484490   12.02076142122449
H         3.57032382733869   14.52495777562778   11.91824055936478
H         4.09869493188501   12.87858036967720   12.37802643443294
H         4.90760852182408   13.72176000486355   11.05197356812541
C         6.04248540371430   16.10464079015744   12.38133122350062
H         6.77419585676973   15.92257698973342   11.59366283932645
H         6.48297922027778   16.78533114947149   13.11003924820485
H         5.14387776164121   16.55376052387531   11.95406174007555
C         7.03823950177787   15.90238810932184   16.03745945954771
H         6.96552605786878   16.78254913679281   15.39443242596778
H         7.45187953216280   16.22012352366542   16.99687767391957
P         8.22796742472298   14.75105998764098   15.21924268762187
C         9.32189164404226   16.04748342917094   14.52850174623209
H         9.53176821571395   16.80000999687906   15.29163404579656
H         8.81648578849166   16.51016322424818   13.68028148686808
H        10.25759226530184   15.62464243775842   14.16865706623660
C         9.23914552335728   14.26581364322237   16.66835873072828
H        10.13315697499914   13.76254560196779   16.29804529092173
H         8.67608337278254   13.56472922033389   17.28383141293980
H         9.53011153023055   15.13318468748707   17.26392115005429

