59
CSD_code = CIQVAB | q = 1 | S = 0 | Stoichiometry = C30H23IrN5(1+) | MND = 6
Ir        1.75758731927120  -10.40794209149110   13.49519101567821
N         0.82423052708828  -11.35615228846827   15.23313978155949
N         3.65503050575446   -9.91875346269763   14.50349364777921
N         0.85276514346832   -8.62121889195087   13.69558311237593
N         2.80046138816668  -12.09240336160312   13.26933209802279
N         2.58353943916164  -13.27252763202766   12.69833594240086
H         1.72272867780848  -13.44925655514296   12.19926952394774
C         1.29393718752821  -11.39346946631588   16.47234752998466
H         2.22865379507869  -10.87600850928940   16.64641844394309
C         0.64711276847461  -12.04237000133371   17.50631716586730
H         1.06647956630394  -12.04488411119520   18.49882777198983
C        -0.55188735567430  -12.68358898861072   17.22341269671109
H        -1.09226159945474  -13.20227664632919   18.00022292021623
C        -1.04472559007919  -12.64738042188784   15.93422293280194
H        -1.97402173830408  -13.14023972542418   15.70362480986879
C        -0.33658343799125  -11.97067633242711   14.93692663286547
C        -0.76437278765530  -11.86441790053175   13.54234653380253
C        -1.95094090351359  -12.44212176853168   13.08319583987149
H        -2.59115430750337  -12.98895331795653   13.75772470222597
C        -2.32544596386553  -12.32050049335568   11.76101405929397
H        -3.24524912979632  -12.76853889764766   11.41830743906594
C        -1.51884391568226  -11.61860112958290   10.88010995817447
H        -1.80858247115970  -11.51774483409813    9.84514807816745
C        -0.33969086296321  -11.04153524763314   11.32552015723012
H         0.27230462664204  -10.49648393576086   10.62192717791205
C         0.06485543261529  -11.14539365459512   12.65177722083990
C         0.03749292395263   -8.28896610900162   14.69823007992837
H        -0.16957613045902   -9.05402209204527   15.43378334115477
C        -0.53695793762206   -7.04053796643646   14.82490869727048
H        -1.18895384692661   -6.82779404089681   15.65598621691470
C        -0.25904299364430   -6.07948891626429   13.86098228594860
H        -0.69357126714879   -5.09432454992715   13.92457919173585
C         0.58245536726549   -6.41280150686963   12.81982946208451
H         0.81390494742967   -5.68817010819155   12.05718373683484
C         1.13461769122344   -7.69252556613703   12.74775550986536
C         2.03215067104191   -8.15561753481258   11.70122516710945
C         2.46697302686446   -7.36633985732393   10.63559421648036
H         2.14470071690162   -6.34077694869090   10.54299939691398
C         3.31798698458736   -7.89693695305984    9.68808858044698
H         3.65482971870979   -7.28902714797202    8.86275541692577
C         3.73764339830244   -9.21336472485085    9.79860095002338
H         4.40220879139563   -9.62972690233364    9.05617149463439
C         3.30813644630259  -10.00014705388155   10.85637926582478
H         3.65382729493149  -11.02379485331385   10.90854046594914
C         2.45170747547672   -9.49664589562943   11.82710538606559
C         4.03069618202854   -8.78772158945009   15.08244381556640
H         3.31227005298277   -7.97919816481288   15.06576363405883
C         5.26724015513463   -8.62299746576467   15.68316371562600
H         5.52666539005665   -7.68272980733884   16.14117892507410
C         6.15623877064710   -9.68936384307320   15.67896208514597
H         7.12856271435685   -9.59693023553457   16.13695421939750
C         5.77463652529293  -10.87331874036771   15.07438554796240
H         6.43679186194269  -11.72301801801603   15.04715414622922
C         4.51256135277753  -10.95563110237089   14.49081732420052
C         4.02088329033283  -12.14199835734946   13.81945774426758
C         4.58560363424312  -13.40937620456605   13.58221197311718
H         5.54594199721448  -13.76511188265460   13.88999395997291
C         3.63813020999321  -14.09653151575355   12.86347996998689
H         3.65181827069033  -15.09242467942311   12.47059688468171

