63
CSD_code = CIQZIO | q = 0 | S = 0 | Stoichiometry = C23H26B9MoO3P | MND = 9
P         0.14353115841309    3.58657687768092    3.09269740761258
C         0.88161695117051    2.12562207882260    0.38454846777180
H         0.25120728954508    1.64837138860253    1.14526697288594
C         0.31813727032243    3.39168598793790   -0.33696477829606
H        -0.67361402870368    3.74955915415160   -0.04365931396963
Mo        1.80425565454298    4.04126149774103    1.29656275343583
B         2.55405471829688    2.06257122016862    0.35010511020312
H         3.14117074754286    1.40130161596777    1.14957312401559
B         1.58958166193601    1.01554393929197   -0.73026582523860
H         1.52019407738943   -0.13088015888514   -0.46978818455469
B         0.12474883298507    1.87543253560006   -1.15866289805001
H        -0.95728437205451    1.40903880636119   -1.12492650483870
B         1.52301546291277    4.35859149478666   -0.97057777570932
H         1.31364362212071    5.51326323102981   -1.17097365717036
B         3.06411270766029    3.50887193197406   -0.56284874429997
H         4.15371315077980    3.98110775067556   -0.56411534366436
B         2.95855662357661    1.90687552541170   -1.38491689591626
H         3.94904177381256    1.37102405540521   -1.72542063321219
B         1.44631400067655    1.79767748788571   -2.32161210193607
H         1.35169345495049    1.18275313144375   -3.31849895001557
B         0.56314452974124    3.31099204729086   -2.04965236875399
H        -0.24308683742812    3.82310124701155   -2.73737840484307
B         2.31905463221199    3.35419263083644   -2.20366319883733
H         2.85017883565546    3.83933213616612   -3.13474724762023
O         3.79266167432697    3.45333528398691    3.59585116999844
C         3.01695544663966    3.63194358028144    2.75751096150634
O         0.64668736806793    6.87623426640162    1.78000356110182
C         1.01628980803804    5.79584652552210    1.59225133718792
O         3.86659256292240    6.28982612426164    1.77925880384599
C         3.11735509665227    5.44170814012662    1.54240395871620
C         0.35020876166385    2.18808663675167    4.25482910029479
C         1.28335832083218    1.19110692992801    3.99661060260153
H         1.90071330983629    1.24058106362172    3.10920317032624
C         1.43265026415008    0.13336258605961    4.87737554454815
H         2.16016626929259   -0.63665823468449    4.66965634810246
C         0.65512938769457    0.06647265975903    6.02073455579378
H         0.77545208998086   -0.75604976197058    6.70951540594792
C        -0.27671093379798    1.05887163924180    6.28331334987682
H        -0.88329382846187    1.01011423236630    7.17552922606252
C        -0.43135277282547    2.11534413086585    5.40631885254532
H        -1.15780969109100    2.88871273050981    5.61340795112242
C        -0.07402800332167    4.95614540990029    4.27917122777475
C        -1.31960813555911    5.35429554033168    4.75687787420330
H        -2.21935705387544    4.86073246467981    4.41527263747207
C        -1.41693073746758    6.39610769549103    5.66232108749655
H        -2.38923952731357    6.70317373206433    6.01869392178271
C        -0.27696715539980    7.04306531653002    6.10705343856488
H        -0.35744595204781    7.85924533094039    6.80888930012786
C         0.96684891731047    6.64214549494875    5.64693699056244
H         1.85982675632186    7.14159140834790    5.99073645717527
C         1.06890975498305    5.60603272590825    4.73769941540447
H         2.04465347399964    5.30400706652359    4.37657304918086
C        -1.55594874979581    3.31399300041961    2.49205085926003
C        -2.20135794917611    4.37690453859928    1.85766088371351
H        -1.72548858176795    5.35066969430043    1.83366176009516
C        -3.44028609129063    4.19188385563192    1.27442177128938
H        -3.93681288066879    5.02073327110606    0.79235376407279
C        -4.03723423140154    2.93989875566528    1.29755400662046
H        -5.00064448375946    2.79360497051633    0.83354548278135
C        -3.39470827508505    1.87744296207449    1.91030036301766
H        -3.85518364518882    0.90087775403285    1.92378251556925
C        -2.15701696158577    2.05907643314602    2.50382913504124
H        -1.66011553986264    1.22536643248751    2.98255915027317

