69
CSD_code = CIQZOU | q = 0 | S = 0 | Stoichiometry = C25H30B9MoO3P | MND = 9
P        -1.16719682681149   -3.73997646604331   -4.55203051180969
C        -2.42557475290479   -7.07504578584491   -1.48170390391202
C        -3.81054429311286   -6.44658432655670   -1.84342912700785
Mo       -2.09905387135023   -5.13931372116307   -2.79294928124452
B        -1.47701243021388   -7.32902871639483   -2.88926406001139
H        -0.30209724929355   -7.49457274068820   -2.75677281878749
B        -2.29437925359877   -8.69384362054156   -2.07639551455839
H        -1.62848540561359   -9.43675114842494   -1.45198890304157
B        -3.79859842837357   -8.13624237994624   -1.41355549384166
H        -4.19267125785835   -8.39445140344924   -0.33585546853828
B        -3.96517364239749   -6.20791093480783   -3.54222378122404
H        -4.80778191999669   -5.46280879356470   -3.94325317717163
B        -2.48377788295301   -6.84740958650147   -4.28008187820080
H        -2.07704956525809   -6.58754762381461   -5.37511161907392
B        -2.37938927323585   -8.57594768203451   -3.83845423135158
H        -1.79518166422830   -9.33041582703930   -4.52867030699880
B        -3.82364934381357   -9.04519410947629   -2.91536597595074
H        -4.29827435597109  -10.11940257833647   -2.95642626873263
C        -1.78474662299087   -6.85015519914363   -0.11198285960858
H        -2.20973195527327   -5.99945470943481    0.42386861557020
H        -0.71077032688504   -6.67567709861814   -0.20846978849102
H        -1.91018410481384   -7.72599346570343    0.52712023913285
B        -4.79325651723830   -7.56262248140459   -2.71822992150116
H        -5.95754201632091   -7.48151499809789   -2.56626900722034
B        -3.94728139145822   -7.87480951073109   -4.24209747074318
H        -4.53994821924321   -8.10413207890067   -5.23387557699083
C        -4.58524649257993   -5.58861025033626   -0.84182194688350
H        -5.17090149268053   -6.20511881428942   -0.15761758793907
H        -5.28766342389358   -4.94509594571307   -1.37431788757545
H        -3.94985950510344   -4.94111831748795   -0.23329189290165
C        -3.32828185726237   -3.63627573563106   -2.90736249241325
O        -4.02687720038028   -2.71620753841970   -2.86827723393798
C        -0.21503731917146   -4.94656537892850   -2.33528562498542
O         0.86500820385367   -4.75166036363773   -1.96676247991528
C        -1.82197421565892   -4.00573906959724   -1.25822262771352
O        -1.62576057439905   -3.26239090012428   -0.38957260242953
C        -0.06081759951591   -4.45317048475943   -5.81577743975443
C         0.10360286378122   -3.82979606471155   -7.04989729110117
H        -0.45097797872129   -2.93057672034753   -7.27859795972524
C         0.97583595433760   -4.36130124176545   -7.98263946719685
H         1.09800820565323   -3.87504375993277   -8.93920488264111
C         1.68985759469422   -5.51245177757177   -7.69229048189978
H         2.36712395470923   -5.92633315657304   -8.42422153891025
C         1.53184025114151   -6.13290347174265   -6.46362789855884
H         2.08515488686602   -7.03107183452941   -6.23493603159061
C         0.65951819572974   -5.60703992365044   -5.52768227320872
H         0.52701291196275   -6.09644764282217   -4.57309954159034
C        -0.12093324850538   -2.41668331070272   -3.85771286229142
C         1.25555863968033   -2.38202966635537   -4.05408007639246
H         1.72703607586359   -3.10612923595482   -4.70339987842659
C         2.02510036448000   -1.42646516908383   -3.41237152642598
H         3.09388559095553   -1.41132637145982   -3.56608838131657
C         1.43157018161239   -0.50143183015378   -2.57172159055853
H         2.03525323035980    0.23844721598765   -2.06794197636394
C         0.05981433525920   -0.52938601437456   -2.37154893085815
H        -0.40735592950909    0.18840723071035   -1.71397658674826
C        -0.71185293140185   -1.48472358249548   -3.00403392010665
H        -1.78237358151918   -1.50376938614500   -2.84312848955770
C        -2.35286675000409   -2.83176115108729   -5.59930731686012
C        -3.36834463574793   -3.58402200661413   -6.18569344462319
H        -3.40592423582923   -4.65127530156875   -6.01333871304103
C        -4.31724965316733   -2.96909521001641   -6.98035978288989
H        -5.10299579273158   -3.55710029446689   -7.43019485424089
C        -4.26381723178475   -1.60026958602705   -7.19327453372891
H        -5.01106369035698   -1.11800970346290   -7.80557540651302
C        -3.25034004959299   -0.85099502737613   -6.62065238845070
H        -3.20308593266530    0.21492949671280   -6.78893627121415
C        -2.29257983828111   -1.46127993767093   -5.82863670311508
H        -1.50014770927603   -0.87050577918915   -5.39065109209436

