95
CSD_code = CIQZUA | q = 0 | S = 0 | Stoichiometry = C40H41B9MoO2P2 | MND = 9
P         5.16333965571835    8.91502217754828    9.86114913907961
C         2.76833052086416    6.41537552038032    9.90572631871685
H         2.27176127954099    7.33079462128857   10.24123235820079
P         4.09526661588499    7.20516584075377    5.89357612662360
C         2.40305188419420    5.86182641632971    8.53315790796797
H         1.65452244613207    6.39499110510313    7.94373663892382
Mo        4.35196364050384    7.17427290365569    8.33122767213669
B         4.35567840976088    5.98625240035851   10.32239024955209
H         4.91230036245717    6.57272452283298   11.19963429309011
B         2.93021286749082    5.17798334207179   11.06996984545769
H         2.67447576648793    5.45193077657794   12.18845927473305
B         1.64680533176097    5.08580902852147    9.89013915007250
H         0.51653725750684    5.35073626914345   10.08501457836431
B         3.69439146992729    4.99814572658603    7.85324342877042
H         3.68034118922181    4.76993928712374    6.67740457679139
B         4.97956521137701    4.98983045562151    9.03545828600618
H         6.13250117585164    4.76835620148537    8.82935312065180
B         4.29521128580311    4.19538296078130   10.50655317716241
H         5.00828433679759    3.65527543718990   11.27385203837157
B         2.62614158669216    3.65672037878567   10.19721983616350
H         2.15667920635164    2.70511796092543   10.70527186304821
B         2.25165886454914    4.16221477220099    8.53485880829443
H         1.49122981225572    3.69361214327050    7.76435860247964
B         3.87455723568974    3.56305812399726    8.92801437828571
H         4.26388864079714    2.53941253318105    8.49240811104518
O         7.17939530284425    7.81141806644496    7.25711929014455
C         6.11268086930286    7.59429096004621    7.66221610429990
O         2.75502599137480    9.77732215100100    7.80951689812704
C         3.38646181821197    8.81461603905842    7.97921040763712
C         3.85848823555214    9.68104510900782   10.88424949161602
C         3.33877646816338    8.99753967735090   11.98439943980681
H         3.78105563927924    8.06061167463031   12.29297892124688
C         2.26909169264687    9.51515181343899   12.69116949688274
H         1.88074992524107    8.97683072436808   13.54350158410110
C         1.69507425508247   10.71601827963091   12.30545444819985
H         0.85732242829655   11.11775729364820   12.85600858741339
C         2.20061664032501   11.39859870859283   11.21172697331711
H         1.75710488568234   12.33470405838847   10.90540581890033
C         3.27323578470587   10.88699298953507   10.50325131189863
H         3.65972023248190   11.42856590339292    9.65140242539226
C         5.91690526817908   10.42954465312236    9.14980851430233
C         5.88418069609921   10.70043565671285    7.78917656978263
H         5.42388778369726    9.99850305600643    7.10842175352767
C         6.43223122514636   11.86995986018934    7.29064534615145
H         6.39133639049935   12.06216982588920    6.22884587896630
C         7.02192727304167   12.78333149168593    8.14578650016433
H         7.44983812337956   13.69523756678890    7.75654717408803
C         7.05910519983886   12.52288504909499    9.50637018106861
H         7.51593521670779   13.23156735319458   10.18161007695741
C         6.51025961158618   11.35761182268360   10.00557088650583
H         6.54194041013231   11.16843040594151   11.06845538991088
C         6.46504010783555    8.53494166006431   11.09697167869277
C         6.49243976242178    9.08170545335191   12.37634557286155
H         5.69616789886707    9.73210362071206   12.71225789270567
C         7.53274269640360    8.78081114368254   13.23842115054520
H         7.54180068319451    9.20643034906229   14.23149537153943
C         8.55415692423362    7.93894789815413   12.83411170856004
H         9.36269347425214    7.70655320613308   13.51098739011153
C         8.52927975565728    7.38846659254544   11.56287257493577
H         9.31822394135134    6.72370963613120   11.24505847715324
C         7.49017733890809    7.68295222445545   10.70088519858084
H         7.45560936432314    7.23203992447366    9.71938091242297
C         4.37480066768725    8.80425282619883    5.03491385024639
C         3.36136070662797    9.68121117993960    4.66431312424382
H         2.32711310391063    9.43224845097757    4.84299493067787
C         3.66315140098030   10.87889829323744    4.03831184525343
H         2.86311078523199   11.54764799420781    3.75615969224772
C         4.97691286851228   11.21592858786350    3.76636332849459
H         5.20677865139593   12.14832329857030    3.27176427089518
C         5.99489480927639   10.34679939176601    4.12627817067971
H         7.02423124754195   10.59533791861068    3.91235314704627
C         5.69828633298012    9.15432924174858    4.75770546377164
H         6.50029282378440    8.48318436268198    5.03144966757124
C         2.44096257301751    6.72945233123139    5.26653599800708
C         2.24894026844504    5.63311921034556    4.43109724685618
H         3.09739199905311    5.06103584413581    4.08584345636682
C         0.97435847816587    5.25699261413213    4.04714574554305
H         0.84370542861290    4.40321163794999    3.39897452453457
C        -0.12957165975162    5.96224309093961    4.49532147999634
H        -1.12334953292433    5.66640475942683    4.19454167989582
C         0.04695397331064    7.04079149019318    5.34495825020728
H        -0.80912645719740    7.58755647716275    5.71364168733441
C         1.32048543557132    7.41380472300320    5.73688882260379
H         1.43701926389319    8.24379163846130    6.42079524407401
C         5.20767779692210    6.21168458336748    4.83441072110671
C         6.13865030427330    5.34105494783589    5.38264729538520
H         6.18391115878554    5.21189912208140    6.45494556205057
C         6.99766569245241    4.63457615233936    4.55734438960218
H         7.71938389413645    3.95916676435672    4.99130469684829
C         6.93349759661084    4.79310448301986    3.18365589585734
H         7.60491031971069    4.24214038823532    2.54187872537390
C         6.00621237670358    5.66293249712201    2.63058179133077
H         5.95314395383406    5.79028707101457    1.55912471854405
C         5.14942566619553    6.37207208422208    3.44995174190849
H         4.42884270392122    7.05626373943964    3.01965565696231

