71
CSD_code = CIRBEN | q = 0 | S = 0 | Stoichiometry = C16H41B9MoO2P2 | MND = 9
P         6.42328867783031   11.99397341672334   -1.19089895377747
C         7.36558860622079   10.45441296413385    1.37216406569874
H         7.84003559358407   10.30711062521711    0.39847936010997
P         5.77735552162434   14.63582243980215    2.37296269996259
C         8.04394631366875   11.43195360596984    2.34864162492120
H         8.92773536669260   11.97529781315762    2.00156704151603
Mo        6.22379646987256   12.48667333689514    1.25342734705320
B         5.70756519198483   10.26283443418181    1.67783186127525
H         5.00052110537111    9.82093543813595    0.83038406071080
B         6.89833021034947    8.99223143760439    2.13742482584053
H         6.93034586611407    8.01203161716713    1.47943298771803
B         8.41818342518429    9.75622445550748    2.57726541772369
H         9.47765173608939    9.40629868008838    2.19685867324558
B         6.92949691454524   12.03357060845102    3.42839986251389
H         7.17541316411100   13.03568651511171    4.02640833055852
B         5.37152094509949   11.23301547060829    3.06284270861992
H         4.30404293933048   11.61077279850607    3.42224701259470
B         5.67624681711174    9.46450144364742    3.30109077337163
H         4.78583698829678    8.75192925201324    3.60020392378794
B         7.34479661340894    9.19737730094696    3.85008338013275
H         7.64709538126715    8.30176980960704    4.55147924844682
C         8.16579317699672   11.90653713527098   -1.86007507935105
H         8.71385252936163   12.74096052298472   -1.41404654118799
H         8.60619729692555   10.98306338175633   -1.46803488300469
B         8.11686550108819   10.78784991321857    3.94406096661941
H         9.01022092099006   11.14447704951825    4.62578650454434
C         8.36595031170643   11.93572096884839   -3.37236278323203
H         8.04561449607625   12.88173874914712   -3.80000690443074
H         7.83153404699714   11.12930657288486   -3.86940474303982
H         9.42570857893634   11.81357914931135   -3.59253607559800
B         6.41467598019767   10.62171286913498    4.40384149862383
H         6.07487789231405   10.76497028681621    5.52536740951974
C         5.75352382359406   10.40569127279388   -1.88010766827210
H         6.14489122374692   10.26279367622350   -2.89136051313868
H         6.13929259856823    9.59667834291199   -1.25281011083480
C         4.23044527406402   10.35442481282872   -1.90218396813623
H         3.82678003368943   10.98389659610305   -2.69129351514137
H         3.81968298220711   10.68738328123813   -0.95050371587319
H         3.89410111649029    9.33441974798257   -2.07837329887178
C         5.62707824359684   13.16144964216530   -2.37920161318390
H         5.77557493724286   12.76175672855750   -3.38741866341884
H         4.55618116845273   13.14897764309388   -2.16346765519278
C         6.13835453593757   14.59063727755900   -2.28674646361972
H         5.64940766257199   15.21403286593080   -3.03382734439711
H         7.21339111293950   14.64416071210091   -2.44544751036933
H         5.91633399943133   14.99829551093532   -1.30306263915346
C         7.27154104357474   15.51953403237803    3.06626472669333
H         8.10059631726703   14.80952722307495    3.01039068887799
H         7.50404225628928   16.33510499449380    2.37470711364768
C         7.19099514932620   16.05419984666744    4.49136052041398
H         6.44412384362781   16.83776977451410    4.59143725937166
H         8.15545737706211   16.47683205408415    4.76987720296039
H         6.95762376042525   15.25605703722544    5.19180553785570
C         4.55168662906138   14.68113463811254    3.75592307208307
H         4.87380119465209   13.92758497406645    4.47808714420803
H         4.58035668243789   15.66191802918797    4.23463793494081
C         3.13778543227692   14.36625363610791    3.28666861172330
H         2.76291968854907   15.12496118084373    2.60385310355036
H         2.46692096673796   14.31716570871420    4.14239704528981
H         3.11067174571665   13.40467674858191    2.77965113920609
C         5.13192287833676   15.98196660048189    1.26869335421968
H         5.92134691392770   16.16020089709488    0.53047813121520
H         4.26148435730809   15.59097103408102    0.73650086760005
C         4.77522989231382   17.30339263843820    1.94279392904362
H         4.50183259158457   18.03493844155869    1.18367590568289
H         5.61718010383338   17.70350729286123    2.50229297372681
H         3.93025355930842   17.19247245227850    2.61650501449156
C         4.50326954696067   12.98920281305356    0.54534701143194
O         3.46166891172231   13.26164249529251    0.10712825837598
O         8.24129478882935   14.59586781652815    0.21972793248763
C         7.45077107698091   13.81917946748882    0.58361457901248

