27
CSD_code = CIRDOW | q = -1 | S = 0 | Stoichiometry = C9H10N3NiS2Se2(1-) | MND = 4
Ni       14.51698818561352    2.25870984074036    5.85326032752891
Se       12.18996250893582    2.00115895075641    6.19993196670513
Se       14.60168832420643    0.99165844374682    7.85042181342104
S        14.25571233595945    3.46961701929953    4.11373217823442
S        16.64262176254255    2.34773263123596    5.67070505137781
N        11.91115882139929    0.56778674157338    8.62617059785319
N        16.07143472216928    5.28900525795368    1.48538950033056
N        19.37473154617417    3.71963531305639    3.63122090933859
C        15.87058686954331    3.83026485959452    3.56304225877070
C        16.93811980615760    3.32693265781913    4.25838611508563
C        15.99417956622865    4.62949940061524    2.42663596178536
C        18.26857746054651    3.55139505997524    3.90479665121762
C        12.75038062793072    1.09190018285328    7.72066892436525
C        12.40319329351288   -0.11501529985902    9.80189162027073
C        12.63859574903057    0.85603852039597   10.95563067404472
C        10.47723006634530    0.66607791110348    8.46894348162458
C         9.92269072925977   -0.50055710694647    7.65601858935270
H        11.67477653680841   -0.87948801728263   10.08528506953979
H        13.34814679652841   -0.60538024215887    9.54457223699534
H        13.38486218821767    1.58931433298288   10.66044941703739
H        11.71946158585264    1.37679590651512   11.21613288223638
H        13.00109852002943    0.31999906681801   11.82835261327221
H        10.02326850413259    0.69200815448019    9.46319735842743
H        10.25122569650662    1.60502706083160    7.95230779429252
H        10.37174082982879   -0.49260004408571    6.66599651807452
H        10.15062252715371   -1.44961649207054    8.13681130372895
H         8.84534443939434   -0.40620010994603    7.55224818509101

