71
CSD_code = CIRDOX | q = 0 | S = 0 | Stoichiometry = C33H31Cl2NOP2Pd | MND = 4
Pd        1.98032985832945    2.21158844768009    6.22157172020258
P         4.23126519096228    2.17570159666850    5.98497651557213
Cl       -0.17281899368170    2.66398682284074    6.70352863264895
P         2.82663090105938    2.95833250861414    8.18052831289707
Cl        1.47288960091767    1.15936692863382    4.29703425790968
O         8.40113716902770    2.84771423032690    7.02498112949829
N         4.43118297014799    2.74128468351179    7.59993465780228
C         5.50829946427760    0.91852700875294    5.74769929219648
C         2.67605288357264    1.65463361918425    9.44036739566787
C         4.70713959779481    3.62044520615531    4.98053110841584
C         7.73655099757483    4.02086459035661    8.95468117288563
C         2.81458246330214    4.55882580279041    9.02153781179424
C        10.01110650440856    3.22058711725426    8.81508016424870
C         6.59152674975071   -1.07480051617854    6.54194759163219
C         2.62898938345023    7.10448042251027   10.09991248613482
C        10.27349251426797    3.75359143998064   10.06694942869702
C         3.37367871878852    5.64531094817691    8.35103230244235
C         8.74810572029240    3.34583776454562    8.25275243824590
C         2.52144845397568   -0.53296321462431   11.13470684626892
C         3.14241038520781    0.63045065458807   11.56045049175036
C         2.02701343314325    6.03450487221626   10.74189087893355
C         8.02327795744394    4.54111443694646   10.20431704141476
C         6.02073587398417    4.04826988412526    4.81013113254244
C         6.27519732668230    5.21805323655167    4.11634816642512
C         5.67934801947187   -0.05446655348652    6.73077280164685
C         5.66007054657761    2.78236076517961    8.37306745762459
C         3.65511808396269    4.37293257889650    4.45884284675666
C         7.31410586318064   -1.14862938969232    5.36084097829665
C         9.28329739517688    4.41408939782710   10.76632144141712
C         2.05654919064913    0.47974175643133    9.01261664969558
C         2.10685635566734    4.76308244490988   10.20158907657645
C         3.29317981316701    6.91121380433110    8.89769929932528
C         6.36371990932664    4.14684248576263    8.35932414830300
C         7.10797914488809   -0.21216917405840    4.36058475162457
C         6.20233367832704    0.81722052378890    4.54643425752664
C         5.22832843585838    5.96156459762005    3.59310531804861
C         3.22286005119218    1.72604734945878   10.71827195506806
C         9.36951263073828    2.14433943135507    6.28524830766017
C         3.91891540917051    5.54040825349686    3.76394786772745
C         1.97748690376805   -0.60922197770558    9.86153775263263
H        10.80145523248369    2.70971981116492    8.28852939665582
H         6.73270271972894   -1.82077958944087    7.31015697975218
H         2.56397506212450    8.09449630052792   10.52599131905505
H        11.26121706358417    3.64703890253806   10.48946562515825
H         3.86204007584408    5.48410390841179    7.39761691346369
H         2.45812231137768   -1.38158900533208   11.79947006201637
H         3.56443802281900    0.68572127056399   12.55332576571971
H         1.48514120998291    6.19270601258909   11.66253983268301
H         7.24422165553109    5.06002438220091   10.74411981420206
H         6.83328886595590    3.47042477949521    5.22653983508053
H         7.29397824016204    5.55272559423993    3.98468331422247
H         5.08584378499654   -0.00745102004522    7.63610047361096
H         6.34719638935259    2.04270966184596    7.95436520750869
H         5.43947960692616    2.49627045544601    9.40706495697307
H         2.61756853097807    4.02803490508501    4.58979065457004
H         8.02488114408422   -1.94795997188405    5.21286884519132
H         9.48679802927102    4.82907745825955   11.74128440836181
H         1.61675699933291    0.43247020572544    8.00439578680254
H         1.61381303820845    3.93117271687681   10.68404104846439
H         3.73698643081121    7.75060181156625    8.38289752962473
H         5.77809606223714    4.87265701363221    8.92453556146029
H         6.44141314060898    4.48689092120722    7.32567733122327
H         7.65014064969593   -0.28891655529434    3.42933938799700
H         6.02336406758895    1.53810781301555    3.76136746037016
H         5.43492793180488    6.87230625675471    3.05073253279317
H         3.69776972958318    2.63702263246419   11.05653171393862
H        10.22153752490882    2.78177497428506    6.02882924596897
H         8.86975745832513    1.82219462644484    5.37210994228285
H         9.72332279103556    1.26057493466357    6.82531459514070
H         3.10541386908040    6.12082358695620    3.35544372408209
H         1.49006580577811   -1.51521957962184    9.53427484943150

