14
CSD_code = CIRFAN | q = -1 | S = 0 | Stoichiometry = C2H6Cl3OPdS(1-) | MND = 4
Pd        6.46487463724128    9.12475151768531    2.81148884052377
Cl        6.19587452727476    9.38343269192963    5.06979035370654
Cl        6.53288203627804   11.31984588654618    2.49378024172837
Cl        6.83525064003062    8.71242070234293    0.59072288131891
S         6.27653385514426    6.94124092668524    3.11889863041745
O         4.90320754853232    6.46224035213929    3.04308107413727
C         7.25112927187457    5.85710170851462    2.01129454038941
C         6.96169017037643    6.27866097644433    4.68215905107124
H         8.30193759470257    6.06952399009541    2.17404019441996
H         7.00626496693900    4.82492746751769    2.23291217214103
H         6.97626924197888    6.11523437237696    0.99391736921467
H         8.02274681833489    6.50256988053598    4.70152648676759
H         6.45977431197528    6.79852427985043    5.49151850324564
H         6.77146437933001    5.21262524734932    4.72416966091360

