47
CSD_code = CIRFIT | q = -1 | S = 0 | Stoichiometry = C24H12AuS10(1-) | MND = 4
C         6.20956866383883    3.27659219916382    0.47536160598053
H         7.14062494195922    2.79494181568112    0.25125787042877
C         6.00028352273539    4.55326926327745    0.89440278299008
H         6.78904932859570    5.26695652648195    1.05861421222096
C         4.63984383113128    4.83880653110581    1.09008203802388
H         4.25714047406729    5.78873753250668    1.41950155497229
C         3.81820521529181    3.77017545119232    0.81728961152453
C         2.40167772301713    3.73828418560271    0.91826523730384
C         1.51758204063022    2.70865855946609    0.67440513745857
C         0.16381920370750    3.05773348754468    0.88888752695746
C        -0.00651299435068    4.36461758481166    1.30038047657736
C        -1.19837335050673    5.07808911073653    1.61097213373243
C        -2.50375906714370    4.65646083197119    1.57641881011224
H        -2.78552560802295    3.66191676012765    1.28801835150363
C        -3.41898167625452    5.65570388756941    1.95444162875209
H        -4.48355729275771    5.50181066525857    1.98494420948530
C        -2.82035145193572    6.83185369021452    2.27545273678740
H        -3.27181687291011    7.75050645449248    2.59386089659846
S         4.74200648830731    2.38900194021786    0.30978378833798
S         1.53885214264307    5.16926400221102    1.42224715482548
S         2.02741187755662    1.12570154218384    0.14958168404167
S        -1.13707320930128    1.91960465206445    0.64787421861551
S        -1.10710147339823    6.74475230247672    2.12164228037669
Au        0.00056569393769   -0.00107542364577    0.00298184405321
C        -6.20963997621824   -3.27627315954939   -0.47619428615744
H        -7.14068639121493   -2.79453670637219   -0.25224667613381
C        -6.00048167809077   -4.55264165505280   -0.89618748872270
H        -6.78936406901823   -5.26594234616117   -1.06149230203863
C        -4.64000468994605   -4.83841822462139   -1.09127259717314
H        -4.25739812381918   -5.78815981017387   -1.42131956822282
C        -3.81821420407416   -3.77027245061502   -0.81710046302145
C        -2.40163421080627   -3.73862275865612   -0.91735722322196
C        -1.51746503793521   -2.70931047490902   -0.67248928218905
C        -0.16370354098659   -3.05839039658475   -0.88696677647698
C         0.00657357243154   -4.36501574948622   -1.29928252529530
C         1.19843594045982   -5.07832055385738   -1.61032573925172
C         2.50358005316626   -4.65561874254003   -1.57897668554452
H         2.78511394523365   -3.66029689536030   -1.29319223616494
C         3.41886867400834   -5.65492827081469   -1.95670125071236
H         4.48324139621094   -5.50026109121734   -1.98959738522672
C         2.82049013824803   -6.83218729075942   -2.27424889713834
H         3.27205193108939   -7.75116382869611   -2.59161175600157
S        -4.74191536488577   -2.38926989088602   -0.30895918261345
S        -1.53886558534851   -5.16939181239902   -1.42203041927353
S        -2.02727323760254   -1.12666519952140   -0.14667565992878
S         1.13727588169729   -1.92061551143980   -0.64486148946145
S         1.10743642656400   -6.74606073304070   -2.11757790169190

