49
CSD_code = CIRFIV | q = 0 | S = 0 | Stoichiometry = C21H14F3N2O6ReS2 | MND = 6
Re        0.37428041878114    5.35081868914876   13.17851213454668
S         2.74853162368880    6.67358027568483   14.58079453953935
S        -0.59001507508075    2.36676750486468   11.21650409484419
O         2.51230344951605    5.99027613313339   13.31293859756012
O        -0.61177164157269    8.24436149570239   13.72574772309996
O         1.57959885907462    7.34299885966722   15.09679860434476
O         3.53654569093867    5.92464432894752   15.51547033755675
N         0.76998686070307    4.61763746293411   15.22178336015043
F         4.27920130976836    8.82831535254240   15.03078530040910
C        -1.43476481233870    4.66524702122000   13.13491236978250
C         1.03520567544552    4.84822895212642   17.61264850516907
C         1.96721100160497    3.18401936451213   11.62146486613255
C        -0.78353170478610    5.97162893956883   16.43852907676998
H        -1.33120546181375    6.14614064232906   15.52406516925595
C        -0.24711414912294    7.17635130621186   13.59047573021164
C         2.46856351829046    3.37393590568379   16.38866337055560
H         3.28531267183415    2.67368668799874   16.31393721244146
C         3.30194979809587    3.36819242299145   11.26137075978799
H         3.99119657917690    3.76702945537985   11.99158216866738
C         1.47761819629411    2.47352927157449    9.37006644683555
H         0.77721903604815    2.11080547024261    8.63536098863837
C         0.27738466193119    5.74352384322165   11.28258158077609
C         1.05150278492170    2.71869840464794   10.66684263661728
C         2.79689563279476    2.69097008948703    9.01844570090038
H         3.11471082698961    2.51076024759586    8.00305061072591
C         3.71066380549164    3.13123680514419    9.96401963180492
H         4.73993271092972    3.29986569657931    9.68790852436537
C         0.60936877758624    5.46720313024660   18.80398730417395
H         1.15246759279675    5.25927984656500   19.71425898299153
C        -0.46658802229175    6.30961236621256   18.80331318163593
H        -0.78308592933706    6.79090115781692   19.71631105245453
C        -1.17527281362428    6.54684168680151   17.61413637222750
H        -2.03765168244044    7.19542495958533   17.63241303564612
N         1.52067166715227    3.56746039990450   12.88435436660337
F         4.96712163119868    7.55814290507847   13.42746007092202
F         3.25461025165482    8.83498398981499   13.13110451593759
C         1.77857361625961    3.75482265182225   15.22011261957235
O         0.26359202371530    5.89712434045299   10.14616743546740
O        -2.51367109534354    4.26035375288208   13.12295430504552
C         2.11931844969449    3.94887524491912   17.57505895976235
H         2.65770976535594    3.72649306503623   18.48440797155069
C         0.35092616329836    5.13353488923029   16.39591622448819
C         2.16750542477049    3.22363002718319   13.93432909983059
H         3.00560769944399    2.52956031416546   13.89240774359455
C         3.87687946000783    8.05709831007512   14.02001202889651
C        -1.58377061218013    2.83455883654796    9.76646820669273
H        -1.19686172056012    3.76202352325685    9.35969605253026
H        -2.59080027418665    2.98354662968003   10.14118661256687
H        -1.57796264057747    2.04007734358314    9.02698381593938

