34
CSD_code = CIRHOA | q = 0 | S = 0 | Stoichiometry = C8H18CoN3O2P2 | MND = 5
Co        2.42301828227002   -0.06769975930230    2.30635009366230
P         1.63885973480404    0.66044758224448    0.40714523685968
C        -0.00593127013672    0.09814951907992   -0.17072579264072
C         2.69908509570617    0.26375427996775   -1.02347759412839
C         1.48386403217013    2.47357680200275    0.25945445685338
P         3.44639232424711   -0.68266129368473    4.12904336713988
C         5.02920189580194   -1.53614388027151    3.82965130812690
C         3.95641349213012    0.67214072377165    5.24065840943650
C         2.61633254044434   -1.82364181422157    5.29910270891081
C         1.51079462459226    1.14136647424633    3.19465724615178
O         0.92391943366175    1.94035862360954    3.77932174198962
C         2.64142507220613   -1.66059830156839    1.61816963099959
O         2.73150283023921   -2.72318088291352    1.17967351863269
N         4.19177646618766    0.95673831732613    1.91419826408758
N         4.49434510372265    2.08464021793800    1.96144209632631
N         4.88562229082471    3.15425586520687    1.96755092043026
H        -0.23536422719443    0.54072837197337   -1.14012872195397
H        -0.76216216701918    0.39300949172365    0.55536333109707
H        -0.00437372604390   -0.98766513927350   -0.25350997220664
H         2.73008755846870   -0.81513572331994   -1.16749676159645
H         3.70588880713061    0.62000627942490   -0.81036047340238
H         2.31337221474082    0.74754329930271   -1.92125695505973
H         1.18764123264060    2.73730485470636   -0.75638679010051
H         2.44212003513791    2.93682387975254    0.49229974177517
H         0.73799239584003    2.83724132662800    0.96512776638276
H         5.63054327624539   -0.90890137992173    3.17381012820669
H         4.84307238435239   -2.48911532929694    3.33690327336022
H         5.54881672042578   -1.70183546526809    4.77374245057775
H         4.54905580392630    0.26978830237587    6.06287837105946
H         4.55047133294165    1.38905515471903    4.67616675864914
H         3.07578396904260    1.17667806485415    5.63598489705339
H         1.69590669504004   -1.36466303968267    5.65719171429025
H         2.36742126113883   -2.74865388281289    4.78115204043487
H         3.27060448431156   -2.04021153932673    6.14360358859073

