40
CSD_code = CIRHIX | q = 0 | S = 0 | Stoichiometry = C13H19Br2N3O2Zn | MND = 4
Br        3.84511215448701    1.91393997040413    1.18513321532582
Br        1.30449173099379    3.29796842802236   -2.18814768757083
Zn        2.43711730089284    3.26088822488468   -0.13317557377330
O         1.14919597326025    3.89858296898746    1.29844789027490
O         1.13141581428732    4.02779765755521    3.51341423628016
N         3.21533979244564    5.23030999738387    0.01218368752484
N         3.99641766619828    5.41220671607490   -2.15630858825503
N         2.66986337679383    7.10424508025347   -1.27186086814126
C         3.30804402103981    5.91670133350168   -1.11998076628166
C         4.97610297365780    4.36887848502183   -1.95180790152835
H         5.82879668404945    4.56233588197704   -2.60515954047187
H         4.57573809092790    3.38186327691691   -2.20288824154541
H         5.31623047113099    4.36634869617194   -0.91810980036941
C         3.59957252584599    5.59373476749622   -3.53673944423050
H         3.45861129175439    4.61261229695100   -3.99321010883812
H         4.36350823066496    6.13766698772490   -4.09661650912484
H         2.64979505258718    6.11492432037792   -3.59270211482210
C         3.17797753860652    8.18214937830496   -2.08710766404049
H         3.27715730074972    9.07593816742057   -1.46372399428547
H         2.50048526612078    8.41402988142331   -2.91242237344126
H         4.15672833506932    7.92898112409637   -2.48367152157421
C         1.52919214481265    7.44480304270871   -0.45547111120014
H         0.80903564652145    7.97964154824594   -1.07667335666990
H         1.80446544309742    8.07811278067572    0.39472856182786
H         1.05669723015608    6.53802519308036   -0.08374581025296
C         3.30458195979332    5.86901575800123    1.22602164223723
C         4.22443302398482    6.92324561745633    1.36721173733571
H         4.78056067140646    7.23691434400543    0.49436226476455
C         4.45267820286952    7.52555158510048    2.58061896502944
H         5.17032411583744    8.32980060946051    2.65018790286915
C         3.77758341523462    7.09244281093441    3.71770626292054
H         3.96722030048354    7.55620047981778    4.67265342105677
C         2.87370319588397    6.06315674531949    3.61124146649427
H         2.34137651743499    5.71310659382393    4.48081599171860
C         2.60742904157173    5.44848061865178    2.38035904704057
C         1.59622789568891    4.39924118964568    2.33053948745806
C         0.18692214336043    2.96479527466705    3.52151223800171
H        -0.12314043127540    2.84822998705603    4.55631675758496
H         0.65349873360128    2.04566760463005    3.16000705818446
H        -0.66799084202667    3.20546457577126    2.88626114248679

