38
CSD_code = CIRHET | q = 0 | S = 0 | Stoichiometry = C13H17Br2N3O2Zn | MND = 4
Br        7.89074553221065    0.18520412190642    5.89293073206568
O        10.02918852085690    1.37131507787978    8.18437386128498
C         7.56714844780245   -0.75378933774378   10.28336604352401
N         7.81045435237271    0.31214689262400    9.53864788410858
Zn        9.01668414490243   -0.32624999096111    7.88250204098153
Br       10.10119085384967   -2.16223654602420    8.89174789453737
O         9.88746680392698    3.55749716817944    7.83614900595020
C         9.15109244682357   -0.31724343758748   12.12754173720380
H        10.08147106423242   -0.83872886234530   11.87948284819658
H         9.02420118902514   -0.30355233241563   13.21013326671873
H         9.20793134824718    0.70652564357998   11.76597889490805
N         6.86625159414898   -1.80020196798059    9.83938078534844
C         7.75781711802186    1.58249025252501   10.04019980857560
C         6.13568228179005   -1.88976041696448    8.60769176600207
H         5.15138081798865   -2.31915142458380    8.80410893445450
H         6.65361418620343   -2.53067561513531    7.88774547984179
H         6.00675718167704   -0.89602898804719    8.18255009451531
C         6.96617924019708   -2.93541857177744   10.73169609246971
H         7.44629675523688   -3.77508674572751   10.22014926592193
H         5.96743355062606   -3.24018986848525   11.06017361615016
C         6.83986666153880    1.88151939869448   11.06634429431903
H         6.26766661377625    1.06792276991758   11.48920831399607
C         6.64911767556754    3.16556675367653   11.51088729271908
H         5.93676260100917    3.35609756907633   12.29991613106553
C         7.35625727736575    4.22177920640094   10.94089617226975
H         7.19724122827773    5.23149057201324   11.28444638642491
C         8.25512505887097    3.96248976558792    9.93577375680441
H         8.81681578768291    4.76509014644539    9.48531646346225
C         8.48813048650566    2.65674640391082    9.48009618496982
C         9.50481562833966    2.45221376934132    8.45842394574384
C        10.84918044697110    3.40644797514407    6.79895769873025
H        11.05655701164428    4.40937169091687    6.43583855335413
H        10.44297439308591    2.78914249967895    5.99451868409409
H        11.75830083163481    2.93981272168850    7.18361201101835
C         7.82724671652150   -2.39236029171380   11.87798000611333
H         7.33696038728391   -2.46952362358094   12.85196081533886
H         8.79699603898329   -2.89835922711333   11.92117242063396
N         8.02419772479720   -0.99131315099475   11.53490081617597

