68
CSD_code = CIRJOD | q = 0 | S = 0 | Stoichiometry = C31H29Cl2N3O2Ru | MND = 9
Ru        6.32220964311645    1.90532428110460    4.04550619878251
Cl        4.29491839307588    0.73888261913772    4.25382794378778
Cl        7.42569873726002   -0.16786571817008    4.13437836366400
O         4.67030852784582    4.01429153752203   -0.57987250492584
O         0.11499977570208    4.12212066652290   -1.20940856919326
N         6.11485755876050    1.54152070607311    2.06650824099223
N         5.19669725855440    1.50940238035912    0.05116576460613
N         2.78034284360289    3.57356923951228   -1.74374561229498
C         4.99855981920573    1.61479824794771    1.38492286530223
H         4.02537790750911    1.70609721609872    1.83473524537875
C         7.12622487894667    1.39291376084499    1.14635536966978
C         6.55204458049981    1.39365016299102   -0.14256333489262
C         7.33576515720500    1.28002656302351   -1.28237941637103
H         6.90668489449902    1.28911894968137   -2.27285938399040
C         8.69743364882902    1.15679256048985   -1.09873720282495
H         9.33951847200253    1.06689041644827   -1.96196901614475
C         9.26802579637313    1.13629209445332    0.17650359709934
H        10.33724022648058    1.02154662609578    0.26693513878707
C         8.49987292502463    1.25329381077654    1.31505609262738
H         8.92521543170639    1.20440114913992    2.30555904480536
C         4.19307049578738    1.70217686047958   -0.95279323926825
H         3.27836295935767    1.16865040279212   -0.67855145962814
H         4.57560204740647    1.30279140785046   -1.89323901900846
C         3.91557187364507    3.21096913327123   -1.08434427139394
C         1.77541867294411    2.68758998284814   -2.21214542033514
C         2.03824685831283    1.59208131350492   -3.02267064012190
H         3.03955059691053    1.41416757864367   -3.37855432678881
C         1.01647593194292    0.73286218675351   -3.38855500921548
H         1.23873986484503   -0.12368338127374   -4.00491333942297
C        -0.27959847498673    0.96908448718174   -2.96309603292325
H        -1.07155656862007    0.28743742176310   -3.22961427984527
C        -0.56905246212348    2.10089497564162   -2.22431700396918
H        -1.57559676947294    2.33371095277099   -1.91673298804307
C         0.44961588388972    2.97340061655290   -1.86709910412483
C         2.34176879258179    4.92910388185203   -1.67098327055413
C         3.19339442357639    6.00119270699554   -1.87989196241646
H         4.22413816557255    5.82141911113281   -2.13488389057269
C         2.71958913684405    7.29380282628140   -1.72970783186953
H         3.39013100846368    8.12491827218478   -1.88134034428011
C         1.39948677411497    7.51961359074033   -1.38036893412697
H         1.03564774732447    8.52739533691474   -1.25425114710905
C         0.53390745188582    6.45489615613057   -1.20448712129352
H        -0.50250685945455    6.60349638959986   -0.94768598419886
C         1.00285399602047    5.15872986843702   -1.35324041809484
C         6.81152445867812    2.77897567629955    6.10874165568814
C         7.96396479955151    2.86438912378502    5.28579136513154
H         8.90263469867180    2.45794910075919    5.64990448163124
C         7.93726681575413    3.52967032908100    4.04734090200654
H         8.85005199372473    3.65062954413696    3.47612676144480
C         6.72829960558890    4.09518695686676    3.56543376437163
C         5.57270337730595    4.02221736883351    4.37397356744926
H         4.66039538314999    4.51384116583059    4.05704113156235
C         5.61595617705992    3.34690177422149    5.61554526422396
H         4.71848513198220    3.32028687684058    6.22396392581208
C         6.87678429628019    2.11588147174520    7.46579646687021
H         7.91246403027971    1.79848701847015    7.63573099170598
C         6.48680340070025    3.09824560595152    8.57385153326162
H         7.11427125825211    3.98750347231718    8.53975454474100
H         6.61142632244520    2.62521165596487    9.54484354802217
H         5.44765001230405    3.40371093912200    8.47627815325783
C         5.98945736177183    0.86874903047563    7.49180480909387
H         4.94095973856644    1.13157043234266    7.37047281906144
H         6.10903866888954    0.33990825012051    8.43450010590262
H         6.26846673554645    0.19743061103302    6.67939860445027
C         6.70484178617484    4.84651123281495    2.26685719755084
H         5.81727883270594    4.60893955358769    1.68111545824015
H         7.58260763593818    4.61476691460284    1.66672243750068
H         6.69560945571023    5.91956654568734    2.46475872476594

