88
CSD_code = CIRJET | q = 1 | S = 0 | Stoichiometry = C44H38ClN4Ru(1+) | MND = 9
Ru        6.37805101232939   18.55461329778458    4.03441683569238
Cl        5.87995511849062   16.44817871113425    3.13846582021457
N         5.69112818303764   19.33966167853093    2.27293831113120
N         8.14753494367057   18.47230048249893    2.98268936711926
N         4.83912629390780   19.56013587420622    0.26570970452757
N         9.56205960248069   18.04283312041252    1.36080945520234
C         4.90835039917450   18.78890708685588    1.36170976559948
H         4.39278292747964   17.85357584290908    1.47729558313089
C         6.13578944844212   20.51563245444982    1.74354764741520
H         6.79718647352647   21.16859214328585    2.28159955259286
C         5.60936406944083   20.66204718134368    0.49497206443655
H         5.72409727293223   21.44008438467564   -0.23112745903154
C         4.19398407621450   19.25671710013099   -0.96124545027097
C         3.17415246292425   20.10283141470734   -1.41688843906478
C         2.67288435744958   21.19115543334811   -0.65686279874497
H         3.08246301151585   21.38427839686497    0.32413262506059
C         1.67256138236272   21.97858153225949   -1.14109860661130
H         1.29510405136443   22.79911802639873   -0.54989065696168
C         1.11296859651086   21.73365611551038   -2.41200690207245
H         0.32352772013170   22.37475996480836   -2.77213749297278
C         1.56098531323916   20.69440912614517   -3.16770349509271
H         1.13404995330378   20.49130039075002   -4.13815060610356
C         2.59578490156464   19.84456496860266   -2.69961251000913
C         3.06334282904281   18.77518308563872   -3.45701329684397
H         2.63537904904263   18.59743408299143   -4.43285499987933
C         4.06442788734516   17.92696049282441   -2.99306706984005
C         4.53813760748304   16.84154252641205   -3.77384077882175
H         4.09420139239878   16.68146090852666   -4.74482826592847
C         5.52243141025101   16.02297698034152   -3.31276559778208
H         5.87856194688033   15.20019734334179   -3.91288274404713
C         6.08171604210242   16.23806256728248   -2.03727138687073
H         6.85437082531816   15.57409122151355   -1.68044237252226
C         5.65590697413645   17.26873565950262   -1.25587111486728
H         6.08914666438271   17.41147863498833   -0.27766513258895
C         4.64237981093898   18.15392034363088   -1.70397735810916
C         8.34655758338161   17.79090016032364    1.86708055851315
H         7.65411065101511   17.08908445591240    1.43889374509698
C         9.28579485331541   19.19344607854782    3.19590056307912
H         9.40427122091062   19.85265631991668    4.03329269573670
C        10.17297751621057   18.93038886428286    2.19277684091139
H        11.15977811106585   19.30201843104607    2.00894981000581
C        10.04768008187421   17.50714757155900    0.13927144076741
C         9.42788989882361   17.91011144632583   -1.05178665363461
C         8.41443610918365   18.90163274769344   -1.10142907231095
H         8.11175376475984   19.39510257043866   -0.18801483801293
C         7.83524056910490   19.24741406339897   -2.28457123356669
H         7.07160614343855   20.01024154553381   -2.31426051728043
C         8.22175012659985   18.62168895912926   -3.48670833939384
H         7.73431851610460   18.90375380948612   -4.40689762740063
C         9.20826686190575   17.68462930114248   -3.48286240772656
H         9.52607507172459   17.21260454623076   -4.40015687988058
C         9.85483674094773   17.30956985876385   -2.27739682413186
C        10.89181596279307   16.38117714024822   -2.25912555977160
H        11.21279789617637   15.93479214224131   -3.18903565640583
C        11.52980728241214   16.01377521912639   -1.07820208984682
C        12.59776242736228   15.08012528354366   -1.06555808754855
H        12.92633293540584   14.66756672909546   -2.00746389472789
C        13.19245480827762   14.71352891492443    0.10233638392269
H        14.00566008406378   14.00450672117735    0.10493981504002
C        12.74499197609716   15.25132152351725    1.32701604639337
H        13.22052500659244   14.93761261817503    2.24373618993351
C        11.72498822736550   16.15320759951542    1.36049500238446
H        11.38647899995762   16.55138036805376    2.30576919768776
C        11.09239648838429   16.57564394937924    0.16318224894145
C         6.65084244369759   17.84475268604630    6.19545170754758
C         5.26824768464992   17.85537553883952    5.87929181134420
H         4.68212198043732   16.95617134666999    6.04287455200267
C         4.63104091634691   19.01499469149315    5.41265898785061
H         3.55824045935042   19.01415962407971    5.25145562442891
C         5.35944632636474   20.22779410701570    5.26324711807747
C         6.73104441129865   20.23126146050809    5.57491034428027
H         7.28464343051288   21.16324307275088    5.54988517377749
C         7.36829148560583   19.04460450372973    6.01284551086327
H         8.41077515302114   19.08911765376382    6.31010950239787
C         7.31473444985842   16.60634219583007    6.74916945501514
H         6.57980214497955   15.79444214030039    6.73965913394928
C         7.75696507128462   16.84215234987911    8.19610447849584
H         6.91246920892048   17.14338368661161    8.81229571787701
H         8.51924972029855   17.61612225947534    8.25220901415882
H         8.17125445901140   15.92568062197749    8.60700453703638
C         8.49330553895548   16.18279046738814    5.86796733531049
H         8.16337958816965   16.06890704950682    4.83458842115844
H         8.88613242182176   15.22923629237398    6.20987833575341
H         9.29757691038916   16.91502812838229    5.90378303124889
C         4.64743617849239   21.49088882072785    4.88867233167396
H         5.33508669559432   22.23356402619530    4.49014167731336
H         4.17424939011838   21.91058813236797    5.77791084324577
H         3.86601400477768   21.29989163094331    4.15543230156428

