57
CSD_code = CIRJUK | q = 0 | S = 0 | Stoichiometry = C21H27AuF3O3PS | MND = 2
Au        2.41510478041552    4.91719791478334    3.19250023142600
C         3.71943743970327    7.16356398365020    5.45272497425743
C         3.81684016158268    8.37890008110597    6.13459088640124
H         3.09845920269203    9.15780896917062    5.94259834333823
C         4.82181200844055    8.61266807212831    7.05268633773198
H         4.87079711655169    9.56158098973645    7.56586717912984
C         5.76382067316892    7.62977863055964    7.30523224920020
H         6.55506502237025    7.80216149728578    8.01901953374473
C         5.68726067223789    6.42724697149369    6.63053706901512
H         6.42110368711192    5.65581437540371    6.81356371253812
C         4.67734225434352    6.17218210020941    5.70465717307883
C         4.72190780233799    4.84901069111917    5.04059587918270
C         3.97798199224815    3.77753971777333    5.53163709909053
H         3.31636389782361    3.93044090168489    6.37305426158296
C         4.09847046773249    2.52462773235361    4.95581928927170
H         3.51325391331171    1.70229503906824    5.33901863602444
C         4.96070968699734    2.32763279848055    3.89060279279204
H         5.04336583757472    1.35707073310887    3.42859405984329
C         5.71819330138972    3.38301915271456    3.41253154409981
H         6.39092560715311    3.22959532137378    2.58406092502430
C         5.60986265620687    4.63478544994180    3.99068579298990
H         6.20310796370716    5.45810830843681    3.62046916099472
C         2.71491797962666    8.21448422723402    2.89355621136890
C         4.17600832813733    7.96686878617160    2.50574851284179
H         4.44326459121517    8.59473813667720    1.65771264077997
H         4.32011569129315    6.92581132228646    2.21158332926518
H         4.85069375785995    8.20125382903163    3.32862782538961
C         1.83364809961977    7.88623608500821    1.68715503929945
H         0.78315077413661    8.08223159998421    1.88374974112924
H         1.94841945339504    6.84265533675191    1.39542839913723
H         2.13778250120912    8.50243159355369    0.84281452321130
C         2.50488149015367    9.67574105170875    3.28259910391614
H         3.19040511127922    9.99133890634075    4.06369205202650
H         1.48086855785306    9.86102074176897    3.59911422116922
H         2.69689548720894   10.29841913677069    2.40951647464564
C         0.78884398772714    7.09723573268478    5.19370977268872
C         0.77476260775131    5.85177733941936    6.08521704753603
H         1.62263095262517    5.86151260240565    6.77005974215071
H         0.82728204633518    4.94667416303495    5.48014024430260
H        -0.13999013420428    5.82337702112881    6.67450135510824
C         0.62547092051949    8.33173358189768    6.07790056780335
H        -0.38361018047487    8.32905251550895    6.48915254926284
H         0.75178500338333    9.25691668950111    5.52268589253961
H         1.32126638316516    8.31435713409303    6.91254162484574
C        -0.36262910024916    7.02165728546428    4.19241803152192
H        -1.29179950699405    6.79513433860853    4.71277300098884
H        -0.18173355314797    6.23496454998592    3.45909937219577
H        -0.49257047444267    7.96845771872425    3.67296348956602
C         2.34798915394946    3.45685001473343   -0.37018053336725
F         3.02107856776383    3.71754890232025   -1.49070491091805
F         1.59432890088498    2.38020447575942   -0.58534269392399
F         1.51883889822885    4.49045320656671   -0.15345748356014
O         2.48082674373413    3.01840997267257    2.18410859376321
O         4.33493162044796    2.17018755756134    0.82442987328317
O         4.06926697756067    4.57975094191125    1.23969599426488
P         2.39564645898816    6.90834581159124    4.22049080529155
S         3.47604575832801    3.26463825960134    1.12325245973542

