58
CSD_code = CIRJIX | q = 0 | S = 0 | Stoichiometry = C27H26Cl2N2Ru | MND = 9
C         9.79880580822758    5.31573943876552  -11.30026309395840
H         9.84690507863811    5.98803374267788  -12.13858993022438
Ru       12.78056218365803    5.10258589575728  -11.22083976312278
Cl       12.12749020000656    7.18339973374558  -12.09347227925412
Cl       11.92862531702387    4.05488917678278  -13.14827631485318
N        10.83988956996756    4.90376574737601  -10.60201292285254
N         8.65874214074479    4.80606188956259  -10.80556479123740
C        10.35090995357442    4.09225204236185   -9.62195696679747
H        10.98425713428035    3.60384938145721   -8.90773216960384
C         8.99481925723111    4.02693151438402   -9.73681181786787
H         8.26274751525789    3.48800624517518   -9.17136924031901
C         7.36523490139296    4.97194936008617  -11.35173415451297
C         6.36438972623264    5.56074927734325  -10.56698589371647
C         6.60175452067475    6.06238497548497   -9.26072393311903
H         7.59928063103102    6.01168222783836   -8.85018288605488
C         5.59539839569833    6.62137781842860   -8.53353476847961
H         5.79064770619051    7.00391728932577   -7.54274291247735
C         4.29134882903705    6.71559727480835   -9.06178090865598
H         3.51001515832301    7.15772330291491   -8.46192420477229
C         4.02899424313244    6.26567877595250  -10.31865119389267
H         3.03744786100864    6.34600135049258  -10.73973172681669
C         5.04917414816269    5.68462834488115  -11.11459252377281
C         4.80428991700546    5.24237143237309  -12.41047870396754
H         3.80904245850909    5.34248087724083  -12.82020644850806
C         5.80523405249376    4.67879441400828  -13.19579774976985
C         5.54851708991889    4.24010206878417  -14.52000855954573
H         4.55067817377882    4.36720500797682  -14.91429422184914
C         6.53203502277480    3.67695704001132  -15.27296351710542
H         6.33016584515999    3.34860224461653  -16.28165998788618
C         7.82652994087798    3.51227323170927  -14.73910813911635
H         8.59730117216597    3.05955940218998  -15.34322454945355
C         8.11861016292346    3.92048920847634  -13.47277291987715
H         9.12081795718382    3.78368799131815  -13.09550801673475
C         7.12461165877528    4.52786339408999  -12.66123314740088
C        14.19991879022099    5.92531642330846   -9.63914067263637
C        14.82434375488670    5.98754362778033  -10.91230752742658
H        15.23185213219904    6.93455913662563  -11.25381462656521
C        14.97564586911012    4.84475112722240  -11.71202625768288
H        15.50649795045358    4.90930000008813  -12.65592315734371
C        14.51418519045272    3.57700457382976  -11.25724359926349
C        13.89261104435288    3.50241017957164  -10.00032056068394
H        13.59094467205904    2.53770883939920   -9.60734731088406
C        13.70937653669614    4.67215479682061   -9.21883535153109
H        13.27786202731601    4.57665500694617   -8.22793154276371
C        14.08392235155589    7.15232947881975   -8.76723023788184
H        14.48080777954289    8.00459388648891   -9.32929470101309
C        14.91294028957836    6.98538176715306   -7.49042730741609
H        15.95403608991808    6.78031835165201   -7.73261377678437
H        14.53302357391819    6.16631919499372   -6.88326889140567
H        14.86986173405531    7.89679051778201   -6.89926902791568
C        12.61694758670598    7.44813687133687   -8.44529397629157
H        12.04681885231222    7.51551591846284   -9.37219262422550
H        12.53338449243865    8.39424689873780   -7.91623986539223
H        12.18560306020660    6.66708275259243   -7.82224448752732
C        14.70257426830907    2.36064165935192  -12.10703034932355
H        14.59904337019536    1.45037795068834  -11.52042074149892
H        15.67812002277290    2.37304056415972  -12.58993955862597
H        13.93800482966458    2.35392935780951  -12.88881349044498

