75
CSD_code = CIRQEA | q = 1 | S = 0 | Stoichiometry = C28H42O4Sc(1+) | MND = 6
Sc        1.79997739189854   16.03718497802707   10.92732553761204
O         1.90983634483213   15.53017522131802   13.23215944490700
O        -0.21491130792858   16.98929712472081   11.60614077724983
O         0.49005715922877   14.08269719588787   10.86480276666894
O         2.70465736590991   18.08933476123237   11.64651807468617
C         1.42982015620040   16.63675225080702    8.85462794645061
C         2.09956500199232   16.02266395115864    7.77859477806812
H         2.84380768298691   15.25333897815269    7.97604598596274
C         1.86694179031788   16.36347124409046    6.45392034347172
H         2.41107013876525   15.85892143451612    5.66820249719298
C         0.94663697130570   17.34546244071405    6.13508183669932
H         0.76116240418375   17.61209747233990    5.10538788686661
C         0.27438180120981   17.98745649715715    7.15754801859690
H        -0.44115173854174   18.76597090916310    6.92973956127467
C         0.51760985140784   17.63967706002633    8.47948224905169
H        -0.02884989987065   18.19634952182659    9.23907003464696
C         3.71066686346871   15.02385765421869   10.66419003579020
C         4.87936739956732   15.72806699529442   10.32389621182715
H         4.83038112896868   16.80283732580833   10.16093583539426
C         6.11123381472376   15.11069878889638   10.15981140601910
H         6.97845829749733   15.70128833205211    9.89885072724365
C         6.23099482261547   13.74235089246461   10.31962023908004
H         7.18655607639574   13.25653714667458   10.19073938503123
C         5.10495398511960   13.00348964283550   10.63236956121156
H         5.17764474637915   11.93040524453025   10.74537692432449
C         3.87991501796391   13.63427582674847   10.79562888324734
H         3.02368794794287   13.00338898656223   11.02899658490422
C         2.99920605894977   14.77671439591515   13.81043695332950
H         3.94553819168810   15.19674596709664   13.45902510032121
H         2.92681926566658   13.73943605294182   13.46302395535669
C         2.83130541600968   14.84933858058928   15.32477624335260
H         3.30842085259884   15.74411798325781   15.72573162874121
H         3.24722616565456   13.97849720902671   15.82344388294324
C         1.31526566061127   14.95009049590908   15.45638489734792
H         0.85491461918848   13.96979424681173   15.32869800015147
H         0.99329950136836   15.37053146473483   16.40528539193388
C         0.98408956063172   15.85887226861700   14.27878680690511
H        -0.03334853268475   15.72600839098385   13.90419134553275
H         1.12576518767702   16.91018758416019   14.56691507021905
C        -0.42206114159494   18.30096677681901   12.15281681399711
H        -0.15816202703085   19.05511516547568   11.39953665279194
H         0.22985642082496   18.42222550880437   13.02024543479195
C        -1.90567670158498   18.39000307913269   12.48558758875420
H        -2.25720950953276   19.41663904990984   12.53792393448235
H        -2.12005318422795   17.89401614041379   13.43333669140066
C        -2.50557434875433   17.60902397759742   11.32034146880729
H        -3.50004929795279   17.22439713587603   11.52999081229048
H        -2.55386856268587   18.23571821968231   10.42981443969244
C        -1.48339896888027   16.48925699023854   11.13461070611912
H        -1.75354377022784   15.61556468797249   11.74091437827549
H        -1.37728629237129   16.18304289771353   10.08915438220292
C         0.05963898038841   13.17263159815841   11.89138882045526
H        -0.55575947926593   13.71785992136795   12.61229529398831
H         0.94286843992451   12.77681341047039   12.40807129232051
C        -0.70164538330044   12.04744463991585   11.19784419673251
H        -1.74600281580360   12.32353314124053   11.04979814440462
H        -0.65888236983355   11.11710518004574   11.75772465577426
C         0.02330968528121   11.97705922855336    9.85776006940393
H        -0.57044162447285   11.51477250118701    9.07458504503309
H         0.96107661514968   11.43081121410717    9.95887457229543
C         0.29122306185242   13.45159210070690    9.58056613337287
H         1.18039537254879   13.62300757173083    8.97053751558299
H        -0.57260281669634   13.92079473446734    9.09320430385450
C         2.86114038074059   19.20075227188482   10.74091089651464
H         2.06261820019532   19.92882452185266   10.93580766862543
H         2.76899113259851   18.82478863338079    9.71887506566844
C         4.21990347134355   19.81491869115028   11.04913624514245
H         4.27817353443189   20.85702371180697   10.74800313309034
H         5.01345418235608   19.25742979094237   10.55219507863306
C         4.29519667981206   19.62227349962381   12.56057409364266
H         5.31247401823455   19.63516808241969   12.94194097393452
H         3.71859324660504   20.39523937795360   13.06960257857276
C         3.63754776905583   18.25469368282230   12.73253416254205
H         4.38399950589841   17.45404937205382   12.66934225960194
H         3.09558443508612   18.16836097525738   13.67909168760386

