201
CSD_code = CIRRIG | q = 0 | S = 0 | Stoichiometry = C78H116F2N4Pt | MND = 4
C         1.66413034037489    1.09439049673097   -0.18998610668019
C         3.67700995590203    1.80852128962251   -0.85452821592673
C         3.13204272082725    2.76990693543336    0.01573215315590
C         3.82123735001860    3.93329250176556    0.32037803575806
H         3.40461825350659    4.68220717095539    0.97506843103153
C         5.06777534612503    4.10032885588907   -0.25387578730708
H         5.63295836555211    4.99425801336775   -0.03890966642237
C         5.61480897110563    3.14006591603908   -1.10141426748233
H         6.59414810414737    3.30794826903262   -1.52269016096201
C         4.93190376989324    1.98022441954847   -1.41773308978540
H         5.36330102127117    1.24167927470401   -2.07463156253987
C         2.86936298049304   -0.37678030161353   -1.76308173628893
H         2.08167900516665   -1.07389770569493   -1.44458392986054
H         3.84549536627545   -0.83599865137927   -1.57304232201578
C         2.71934643333134   -0.04494479614171   -3.24889490077070
H         3.38143904482305    0.78768443266260   -3.49711220589568
H         1.69365554701937    0.28157510341173   -3.43147405274149
C         3.06397320573011   -1.23962895253943   -4.13305490141218
H         2.36398721035648   -2.05548951026712   -3.93777406971723
H         4.06441583782237   -1.60158840349573   -3.88113665560259
C         3.02554182706511   -0.87338041690661   -5.61437269240520
H         2.03161504186872   -0.50212629471691   -5.87162908572009
H         3.73201664172157   -0.06114524396632   -5.80138046250187
C         3.37280026969182   -2.05631379885247   -6.51455225929414
H         4.37815655606076   -2.41123647164620   -6.27568516311691
H         2.68013606090950   -2.87892304080385   -6.32092693978741
C         3.30821120046323   -1.67722068205609   -7.99156427087374
H         4.00603503971398   -0.85879993818028   -8.18398237850691
H         2.30508274881602   -1.31188797372798   -8.22532352336463
C         3.64303319085703   -2.85089472884483   -8.90793436444364
H         4.64013315542377   -3.22617116226858   -8.66578083369561
H         2.93333515552476   -3.66242163851725   -8.73106663494509
C         3.59766259118336   -2.45156024452946  -10.38048242367598
H         4.32925709794663   -1.66061242097963  -10.56249683201072
H         2.61068977780372   -2.04326705138008  -10.61191341266892
C         3.88486100434954   -3.62919427481661  -11.30785773134233
H         4.86675694173819   -4.04562664521594  -11.07039293038525
H         3.14330492154172   -4.41257021108795  -11.13481245909954
C         3.85160554078509   -3.22026371515650  -12.77807351879525
H         2.87763057173699   -2.78071555982604  -13.00677226487997
H         4.60784317835443   -2.45218883187743  -12.95763590496235
C         4.10108498465144   -4.40256747275481  -13.71071447791619
H         3.34798618120118   -5.17142700691875  -13.52460314120652
H         5.07892862735481   -4.83618198290530  -13.48847929362450
C         4.05092674316225   -3.99078634182655  -15.17681688419667
H         3.07465705543290   -3.57983268048156  -15.42497828092182
H         4.23564339885019   -4.84653649520885  -15.82206247970454
H         4.80337557505190   -3.23354402488216  -15.38688927492767
C         1.04913827270355    2.87022650159423    1.40104230122094
H         0.08755031740096    2.33954539996374    1.34946251247322
H         0.88646128195992    3.92871113866267    1.17505995204355
C         1.66858551067644    2.69804484788220    2.78931012180072
H         1.86624989836568    1.63514108763569    2.94528938099475
H         2.62277346457879    3.22791263400620    2.82860349242472
C         0.75637681263864    3.20734743244388    3.89929955435956
H        -0.14446132917406    2.59115596447642    3.92818108541109
H         0.44848403343546    4.23461832307789    3.68754226799109
C         1.45724634846209    3.15469744637478    5.25526169726997
H         2.28536780686176    3.86744901542679    5.25939734221434
H         1.88087254873073    2.15880350951051    5.40158616463122
C         0.51204043484864    3.47236445692312    6.41045649508693
H        -0.28141750372310    2.72273749624426    6.44335558545155
H         0.04200702428566    4.44446857598809    6.23940232649637
C         1.23960704396545    3.49322943956420    7.75213138963054
H         1.72129910045560    2.52671591439839    7.91708799965808
H         2.02735309525551    4.24997673050981    7.72214829426904
C         0.29599481144234    3.79579775254345    8.91313448661799
H        -0.47028661911115    3.01975843501097    8.96902389646071
H        -0.21057818155572    4.74636979184735    8.72601171253879
C         1.03283970949310    3.87441417700057   10.24765754269710
H         1.52656903903661    2.92004271027200   10.44519218984772
H         1.81043886522613    4.63975719808834   10.18484027924329
C         0.09209194948871    4.20656913137074   11.40287548759412
H        -0.67583921614809    3.43365975727064   11.47639004385880
H        -0.41263729935409    5.15367843421934   11.19485127928243
C         0.82912216812956    4.31253756139827   12.73527402646296
H         1.32910856211176    3.36448422264631   12.94784023715247
H         1.60121071868896    5.08241242266841   12.66114620244872
C        -0.11406621855422    4.65414053600685   13.88582292431842
H        -0.88428286253130    3.88373734592434   13.95869122532647
H        -0.61428018385496    5.60181263782665   13.67226813517837
C         0.62089390767917    4.75979133955264   15.21593045328981
H         1.10853101039535    3.81782433630962   15.45813823598508
H        -0.07186268162248    5.00428397243716   16.01813476353906
H         1.38196292332119    5.53600682423522   15.17126611580906
C        -0.63713277354098    0.67151869783959   -1.77358910371048
C        -0.95432023735980    0.91652234150380   -2.91947096129618
C        -1.32813483138905    1.18672190754429   -4.25706270180543
C        -0.80402917579592    0.41177231965288   -5.29588240484280
H        -0.11138282263815   -0.38252909227861   -5.06121192822601
C        -1.16490877335530    0.64790533779390   -6.60677044523727
H        -0.76695604238703    0.05411834163637   -7.41556089796945
C        -2.05807487505853    1.66885478867470   -6.87577591078659
C        -2.59357982441432    2.45582951931903   -5.87192427471588
H        -3.28713086281141    3.24363353008886   -6.12287986325029
C        -2.22650024211390    2.21211185494218   -4.56354469107234
H        -2.63403120749490    2.81474686458190   -3.76482643174811
N         2.74349107960185    0.80212436852924   -0.94672820032927
N         1.90082350361142    2.28844623905269    0.39593435186537
Pt        0.00083894197061   -0.00052629308188    0.00020339351490
F        -2.42014291534593    1.90394016528798   -8.16223969935066
C        -1.66261015251507   -1.09525705898439    0.19045967191568
C        -3.67612889192286   -1.80824742823031    0.85438525808470
C        -3.13153566776622   -2.76985451930975   -0.01584881611558
C        -3.82138686344943   -3.93277380352799   -0.32081528977144
H        -3.40508250628393   -4.68186197955753   -0.97550973013470
C        -5.06816536862278   -4.09911118843833    0.25312591367344
H        -5.63385223238482   -4.99266619722305    0.03792410021870
C        -5.61479554368019   -3.13863305544748    1.10068202191355
H        -6.59431253966665   -3.30599364773327    1.52175829468414
C        -4.93124543020367   -1.97925526061926    1.41731024826992
H        -5.36229587693282   -1.24055512603412    2.07426222851633
C        -2.86772269813364    0.37663985950105    1.76303534950286
H        -2.07998062556756    1.07361918999839    1.44439709443499
H        -3.84380920607669    0.83592493596624    1.57290312628855
C        -2.71773628876026    0.04492606233455    3.24887933589103
H        -3.37895436581169   -0.78848119277589    3.49684155860585
H        -1.69173919561394   -0.28046685063264    3.43176520102804
C        -3.06405348487379    1.23918516749316    4.13294920807951
H        -2.36520954960850    2.05603327529436    3.93767797645104
H        -4.06500796797771    1.59973894955356    3.88102112438213
C        -3.02505666598126    0.87293982817479    5.61424683959872
H        -2.03065310218799    0.50290240796712    5.87141665881255
H        -3.73051876668449    0.05984156039538    5.80132088753731
C        -3.37365097053997    2.05545191048575    6.51445411534180
H        -4.37983418934181    2.40856151856646    6.27638453170613
H        -2.68258555124571    2.87923130567931    6.32009591532809
C        -3.30711048297796    1.67672977540174    7.99146677938870
H        -4.00316886401299    0.85697819500098    8.18460409762010
H        -2.30307737590976    1.31340191000778    8.22445196906059
C        -3.64346270033926    2.84987944169105    8.90793495332545
H        -4.64154673385955    3.22308344345824    8.66663079322271
H        -2.93557191593595    3.66281705764441    8.73031190103269
C        -3.59599208103785    2.45084172149026   10.38048717849830
H        -4.32555987402715    1.65816214648415   10.56312536428584
H        -2.60787530713378    2.04492943232911   10.61122264516130
C        -3.88534967314422    3.62783302110049   11.30799932251767
H        -4.86780630484819    4.04277170380452   11.07023459077859
H        -3.14495852056196    4.41241548646200   11.13544491406240
C        -3.85214699040767    3.21855307055749   12.77810928421211
H        -2.87769697977472    2.78024088718161   13.00713715677586
H        -4.60744701256126    2.44941099040519   12.95705118503527
C        -4.10370967839084    4.40015147627874   13.71107171375035
H        -3.35076541035346    5.16955625869620   13.52660491646970
H        -5.08146114952697    4.83333642451002   13.48759555446317
C        -4.05562933913054    3.98742681313651   15.17697166490253
H        -3.07961385481887    3.57658297768264   15.42630445042999
H        -4.24160757745118    4.84265830381875   15.82254135899915
H        -4.80816626193425    3.22980280823480   15.38534856962843
C        -1.04882147016565   -2.87089492706723   -1.40127028001917
H        -0.08690243351177   -2.34082278508088   -1.34971491726681
H        -0.88672511163941   -3.92959317141645   -1.17587994186961
C        -1.66862958050886   -2.69767972289636   -2.78925366880709
H        -1.86539021284057   -1.63454400009742   -2.94478257814521
H        -2.62331945395238   -3.22666080786678   -2.82836142033053
C        -0.75735044593361   -3.20741879515370   -3.89977504668331
H         0.14408205289368   -2.59209534254755   -3.92871307395757
H        -0.45038327548736   -4.23506498858905   -3.68850352808702
C        -1.45850812785695   -3.15360718475276   -5.25553778889642
H        -2.28735568777073   -3.86551004793955   -5.25974451152212
H        -1.88112571051917   -2.15723204408981   -5.40148370088265
C        -0.51369056338507   -3.47190387360909   -6.41085989715994
H         0.28032495043317   -2.72286073198675   -6.44371480435930
H        -0.04437342638472   -4.44436687463048   -6.23986029479326
C        -1.24114091850424   -3.49216445971724   -7.75259391261713
H        -1.72225723753189   -2.52536243094384   -7.91752412413222
H        -2.02929374300237   -4.24849431608461   -7.72287747800631
C        -0.29731372197412   -3.79508459720911   -8.91332384608151
H         0.46942298599998   -3.01945614155086   -8.96876566383437
H         0.20865971671070   -4.74596619571195   -8.72612831919176
C        -1.03352744803673   -3.87311725756517  -10.24821658552049
H        -1.52707310793283   -2.91863400653510  -10.44565186040992
H        -1.81120429383124   -4.63843495819965  -10.18610728113227
C        -0.09208445588024   -4.20490405659376  -11.40296670544427
H         0.67585224375817   -3.43192860386796  -11.47575011770033
H         0.41256969378000   -5.15203850028490  -11.19485009616481
C        -0.82816598099680   -4.31061128568576  -12.73590979186944
H        -1.32774813703708   -3.36242466308084  -12.94882947566876
H        -1.60048690293124   -5.08031136173875  -12.66242199822765
C         0.11597769766596   -4.65238689832113  -13.88561977174150
H         0.88624675432201   -3.88199241836854  -13.95788448822199
H         0.61599389655726   -5.60003417421315  -13.67148697003732
C        -0.61771305376962   -4.75822680491227  -15.21640370885269
H        -1.10494298775135   -3.81623824806291  -15.45934457850608
H         0.07583492620162   -5.00302683898661  -16.01783196072652
H        -1.37893836948608   -5.53431927860200  -15.17233118634472
C         0.63851197926613   -0.67253543999598    1.77418419980034
C         0.95581516551310   -0.91702779962901    2.92020357692341
C         1.32911714513339   -1.18691556606787    4.25802769699758
C         0.80499409381122   -0.41142815456112    5.29644390376081
H         0.11261846966938    0.38297374697146    5.06132221524379
C         1.16532825316902   -0.64728383597307    6.60753067554432
H         0.76702503381857   -0.05334421380698    7.41604252148320
C         2.05814116328956   -1.66837980185878    6.87715114330766
C         2.59384243420710   -2.45573034562120    5.87370602617881
H         3.28700652397499   -3.24372380114667    6.12514605742578
C         2.22728323853989   -2.21229826054971    4.56512423605731
H         2.63509807201634   -2.81516018600231    3.76672049496210
N        -2.74204219435495   -0.80241065661523    0.94688954400330
N        -1.89992190479168   -2.28909007222520   -0.39569065335520
F         2.41943784224784   -1.90340822751194    8.16384804540480

