41
CSD_code = CIRREA | q = 0 | S = 0 | Stoichiometry = C16H16N6O2Pt | MND = 4
Pt        0.00013174014209    0.00043419271265   -0.00018572783145
O        -0.90541017779069    1.40176634869513    2.40130168124935
N        -1.72107307574560    0.10289458193067   -1.02929456169206
N        -2.75442125087678    0.34442534946189   -0.30000446847953
N        -1.22172526087097    0.87606289896555    1.30460156520057
C        -2.50586276018387    0.78176231269814    0.93447890004221
C        -3.62054831708764    1.23794822118292    1.81438286954649
C        -1.94248668260540   -0.27933444282767   -2.34392360556577
C        -1.04100615383239    0.15236050954282   -3.32015536594353
C        -1.23481475317966   -0.20918901517724   -4.63797381044222
C        -2.31230950010119   -1.00620238277463   -4.99037728390079
C        -3.21739719609233   -1.42273724572516   -4.02458783848048
C        -3.04299497456962   -1.05886964878318   -2.70574183466151
H        -3.56644235867668    2.31819833673597    1.94800610501919
H        -4.57309779679755    0.97230161089469    1.36889820257866
H        -3.52153346919877    0.78096133794560    2.79806084150317
H        -0.22567576149527    0.80317127187515   -3.03554996778494
H        -0.54045353114860    0.12632896977982   -5.39297632703272
H        -2.45029402141169   -1.30120073192511   -6.01976785038313
H        -4.05997726669168   -2.03773318092818   -4.30383943266371
H        -3.73031775250394   -1.37769035266332   -1.93709144390904
N         1.72108294238020   -0.10285588437892    1.02926336986280
N         1.22175850288521   -0.87615977370940   -1.30452477803617
N         2.75445345818612   -0.34433512155313    0.29999028959093
C         1.94246957698946    0.27928901842549    2.34392477388488
O         0.90545050608793   -1.40175262190842   -2.40128244362026
C         2.50590536220488   -0.78167728191434   -0.93449027304735
C         1.04093883910658   -0.15241087320803    3.32010940660325
C         3.04300453045246    1.05875351229789    2.70582371238171
C         3.62060249888304   -1.23773741359715   -1.81444027220008
C         1.23472313757370    0.20905695519807    4.63795305020855
H         0.22558909396940   -0.80317696055024    3.03544767101305
C         3.21737675296264    1.42255135110522    4.02469476869411
H         3.73036368416824    1.37759380702785    1.93721360269151
H         3.56654562288477   -2.31798482456555   -1.94810577718567
H         4.57313855712822   -0.97205986075465   -1.36894496101892
H         3.52155313197124   -0.78071244892645   -2.79809751935950
C         2.31224060377560    1.00600604472395    4.99043345838314
H         0.54032878774370   -0.12647900397423    5.39291721776474
H         4.05997433519675    2.03749682323673    4.30400816703779
H         2.45021039616812    1.30093561540874    6.01984588998313

