50
CSD_code = CIRRAY | q = 0 | S = 0 | Stoichiometry = C19H23Cl2N3O2Ru | MND = 9
Ru        7.65875624074250   10.56749924082468    8.58469879181777
Cl        7.23350384922931   12.71492695458721    9.48026079058103
Cl        5.34410630517306   10.35943149266564    8.27511685800111
C        10.48134477983805   13.65496683170462   13.76018747863911
H        11.32521009154360   13.02803371355314   14.05515944124384
H         9.80119945393489   13.75321323545709   14.60833537183256
H        10.82473972276578   14.63279697072312   13.43431202580670
C         9.34768759067479   11.84638130682659   12.81204071843764
C         8.03864887299634   10.23522189888618   11.59507692788033
C         6.85867704459706    8.58985626287023   10.84203789289242
C         6.06103127046767    7.72089994218173   10.10733023074657
H         5.73218601455540    7.99289582892666    9.11637835504637
C         5.66936073162865    6.54720485511398   10.72021170496395
H         5.04591041350096    5.85277882450758   10.17805528450823
C         6.04759118251379    6.23708877930347   12.02689913691335
H         5.71676475601613    5.30752354050319   12.46439864601476
C         6.82145957701493    7.10059353327659   12.77851784062156
H         7.09988418597243    6.87486799168171   13.79578006084699
C         7.21662912740723    8.28030577151995   12.17101943867053
C        10.56973729026667   12.39131711910639    8.41804258814020
H        11.15107241262960   12.81752646963052    7.60037109630271
H        11.24748726042853   12.06464613085241    9.20337209621639
H         9.92350420031272   13.17465589708183    8.81824423882104
C         9.73173089675284   11.25499576289417    7.92064465950572
C         8.78320925165288   11.47485653384688    6.87554132981108
H         8.70422750887075   12.46451545394857    6.43650901594628
C         8.00498914346652   10.42338571411905    6.38053311710311
H         7.31395243835569   10.60790425266612    5.56425835752310
C         8.15718340937297    9.08712447354286    6.87468753644511
C         9.06551867630747    8.88505495641949    7.92175898944929
H         9.24022857185625    7.88901298694484    8.30860488484054
C         9.84227180918855    9.96075375468098    8.44515529098359
H        10.58289705419025    9.75210068302279    9.21025296602046
C         7.37985989150963    7.97727613847306    6.20430462343761
H         6.32378015151865    8.27541105334566    6.20935654638932
C         7.50435057169398    6.62420038337455    6.90155309629082
H         7.23103373768453    6.69269061508996    7.95137918780553
H         8.51950060346057    6.23843574124335    6.82105517687030
H         6.83619120849299    5.91164603798370    6.42409463323603
C         7.84369613188787    7.84390551853125    4.74764726683717
H         7.27552355398793    7.06123655571640    4.25145005596025
H         8.89933898602314    7.57928436134025    4.71121240489315
H         7.70176720026507    8.76901170679463    4.19526258623165
N         7.40816981972448    9.81361538095534   10.51124762453340
N         7.96445205605442    9.34724400344307   12.61286872156895
H         8.39233180767189    9.51288228005960   13.51512179128661
N         8.70069000892549   11.42715862647435   11.68122089049025
H         8.43493610483467   12.11909349720513   10.93974615396606
O         9.51000091017596   11.17784193737922   13.80781227197591
O         9.80457612186747   13.08872899872215   12.64577380566756

