33
CSD_code = CIRVOO | q = 0 | S = 0 | Stoichiometry = C10H16Cl2N4Zn | MND = 4
Zn       -0.41697005076579    2.19512027079910   20.88549332804892
Cl       -1.82733891361364    2.90678303054718   19.29624121101012
Cl        0.25484790970435    3.05664747212003   22.84374497847986
N         0.86749012637285    2.05502421416829   18.31203204731195
N         1.15363338884371    1.84809316545479   19.60346875968165
C         2.42183989857406    1.45693338231360   19.66611324820317
C         2.95259354755554    1.41879153304961   18.37128948315155
C         1.92747564947941    1.81270216922210   17.52875709744080
C         3.07212414859784    1.12161627454863   20.95716663344023
C         1.88638783821277    1.98788279853758   16.05643992891303
N        -0.58325027912410    0.18986532600168   22.93841004734348
N        -0.90071546525499    0.34786706960174   21.64738689831666
C        -1.41653178157596   -0.80183564589682   21.22664187831485
C        -1.42676407697187   -1.71360362398466   22.28916599988532
C        -0.88813794476105   -1.04099399192739   23.37218328776313
C        -1.86703807172613   -0.98908730168662   19.82531203369497
C        -0.65257596515064   -1.47271469871091   24.77156204444960
H        -0.07438019923035    2.38455920170147   18.09043083310943
H         3.94925939571466    1.14526938578610   18.09234119700141
H         4.11570148167657    1.42592687968494   20.94635376256251
H         2.55467581655798    1.62398016037267   21.77090252416791
H         3.03017368512503    0.04643021577400   21.13082818227532
H         2.74650333020746    1.50935686863837   15.59742042782344
H         0.97430320876855    1.55811189206614   15.64750612519360
H         1.90236932438067    3.04761553857587   15.80315734199112
H        -0.19040287876928    0.99943477646235   23.42388993048767
H        -1.78329420082500   -2.72276026211410   22.26719062469178
H        -2.05723017754727   -0.02141920239229   19.36784822139661
H        -1.09743607197759   -1.50085429850208   19.24815177410056
H        -2.77244715823816   -1.58989777684409   19.79507551996131
H        -1.32979570011529   -0.95049490816467   25.44648640190775
H        -0.82040406952692   -2.54132744556819   24.86716729350210
H         0.36703425541336   -1.24152246963037   25.07414093435900

