75
CSD_code = CIRVEE | q = 0 | S = 0 | Stoichiometry = C38H26N6NiO4 | MND = 6
Ni       13.41847212277124    4.24227397448029   12.79375263956041
N        11.92525992062732    2.86099792991727   14.44478776427755
N        13.04261298282026    2.82235645192144   13.84049609583767
N        15.16122030671003    3.32351879048361   12.57279376303260
N        14.27961416763630    5.71734721467752   14.18900248621525
N        13.52205349560255    5.91916784288747   11.70854202537267
N        13.07323971662152    5.74603003950590   10.49554209114115
O        11.58291564433811    4.72383730794828   13.21299013632687
O        10.40628589032812    2.48416025331073   16.45348081341858
O        12.92455293507763    3.48203509963997   10.68544215563987
O        12.60254241896008    6.78556504738566    9.65967716064991
C         7.47036525544210    4.49882417269316   16.06280879991711
C         7.81693578677699    5.28825235514172   14.94713141747873
C         9.01838772830496    5.08490871247818   14.33265315570453
C         9.91732951516122    4.10189818898837   14.78411267551756
C         9.61344815360249    3.29783970418838   15.96097308341956
C         8.31743619310138    3.55501596356686   16.54652626041834
C        11.15506181677065    3.91635586629732   14.11819094461560
C        13.92905888515807    1.84223262561322   13.91240903705854
C        13.63861906443161    0.55789783838333   14.55978843701425
C        14.13563740807215   -0.62188175816221   13.99859718465865
C        13.87545490632103   -1.84324197725002   14.58874377322858
C        13.10824536445725   -1.91167122529284   15.74057213170953
C        12.58134201103615   -0.75066882986044   16.28015641427957
C        12.83516916962371    0.47788868924506   15.69761882077281
C        15.17921051560058    2.16825660852435   13.28797851636870
C        16.37700107910512    1.44961269051481   13.44130147280032
C        17.51673144807490    1.88844044262775   12.80923862994704
C        17.46517012770586    3.05018713036400   12.04154520747635
C        16.26787898794290    3.73731766410583   11.97524264005746
C        14.53988622812613    5.56215844100655   15.47919904068081
C        14.55758995779131    6.61199594997491   16.38339368211580
C        14.29894889930250    7.89399373219680   15.91652733192683
C        14.01994753978519    8.07178085069859   14.57553381429838
C        14.00487988214427    6.95592527804294   13.73568920648649
C        13.63984546080057    7.04885815800054   12.32844719629928
C        13.35827021020033    8.36114995672760   11.70847128013616
C        12.19431831030150    9.04906827609993   12.03657189113178
C        11.92184587716398   10.26811698818854   11.44321715091445
C        12.80868586612006   10.81057753979471   10.52802309243617
C        13.97021220184746   10.13032059114082   10.20303974720974
C        14.24611388534711    8.90829923526798   10.78846033540018
C        12.63949407489586    4.49100158763602   10.06687143597031
C        11.88806425782024    4.76417658875279    8.86044538649151
C        11.90846009552436    6.15442905537416    8.67858942984556
C        11.28034025824093    6.75938665769111    7.60594254385433
C        10.61746230711243    5.92927910161457    6.71747962083147
C        10.58214542589223    4.54711074835235    6.89059091299158
C        11.21367769069928    3.94620230527248    7.96132117164503
H         6.50917963574746    4.65696153934035   16.53544052261149
H         7.12750877957374    6.03653130187645   14.58417271659503
H         9.30410019465961    5.66312569202583   13.46434596390570
H         8.05098314117065    2.95166253047309   17.40265902800487
H        14.69396311529477   -0.58326944241068   13.07443231778465
H        14.26386631945423   -2.74714013297331   14.14089846803614
H        12.90786566907547   -2.86840618719433   16.20079608899400
H        11.95737159413568   -0.79518982397530   17.15968178048828
H        12.38116184082656    1.36369096443713   16.11138388955810
H        16.39310572775828    0.57505153500766   14.07106963666948
H        18.44384335376408    1.34426222967264   12.91247763807744
H        18.33631131337064    3.41618161685620   11.52291094570665
H        16.19737810735260    4.66176514812278   11.41541108986864
H        14.75221029762600    4.55071906529555   15.80274294236025
H        14.77619419911344    6.43107245978610   17.42330988579408
H        14.31250018540187    8.73875947187108   16.58880675101789
H        13.80522313992212    9.05098329963534   14.17662234170833
H        11.50263310527520    8.61402548139409   12.74313339276169
H        11.01361748515128   10.79485287881325   11.69541503048669
H        12.59382372768492   11.76300890528446   10.06688197241617
H        14.66343382607787   10.55152236988582    9.49016614172557
H        15.15182925788981    8.37526113515679   10.53630045428270
H        11.30554241617852    7.82933984618932    7.48293834126330
H        10.11189649716374    6.36772409309022    5.87081692268901
H        10.04923006818732    3.94035913867653    6.17526728837726
H        11.19268555482402    2.87955902751306    8.11430844422083

