26
CSD_code = CIRXAC | q = 0 | S = 0 | Stoichiometry = C10H8MoN2O5 | MND = 7
C         1.97679565441886    2.29936751082937    5.66482431445880
C         2.69086738508307    2.54423750564399    6.83653648437825
C         3.84365968373243    1.81362102291707    7.08162609942588
C         4.25241435899180    0.86528978031539    6.15784246756633
C         3.48409932005636    0.67862991898391    5.01567561717286
H        -1.34947032691265    2.74160929085175    2.78850862419568
H        -2.46839235405184    4.62051679598526    4.01190155795405
H        -1.43101866449114    5.44434953255660    6.13280370885830
H         0.64801914208040    4.37643195026688    6.92597894433948
H         2.35958725332617    3.28186936692674    7.54875739477011
H         4.41158102726509    1.98551163479192    7.98363891556246
H         5.14465253420360    0.28100726550453    6.31516701915157
H         3.74297894522847   -0.04658975080445    4.25296313637574
Mo        1.04300224242827    0.97692005895869    3.00410493472118
O        -0.17492476327980    1.01123903981868    1.90489787535876
O         1.24597091947267   -0.78066820639657    3.55076599198659
O         0.35160018754962   -0.09574206527060    4.33523598317898
O         2.17258382650756    2.29662319564959    2.38836993902019
O         2.63901086545887    1.04495684914344    2.07236904200995
N         0.16885233236284    2.56790311164252    4.13885533888228
N         2.38583915774223    1.37641541781016    4.78833456278892
C        -0.94971363850190    3.14373522880129    3.71168594965514
C        -1.56197244643975    4.18154706736239    4.39570251495551
C        -0.98505614558160    4.63724020387323    5.57181544707581
C         0.17958780054806    4.03694082881142    6.01673595477839
C         0.74104570280228    2.99593744502678    5.27710218137882

