99
CSD_code = CISBOW | q = 1 | S = 0 | Stoichiometry = C42H52CuN4(1+) | MND = 2
Cu        2.03223088693796    8.82600091661011    5.12036879161869
N         2.37436014509930    6.10781539452508    6.14532609344078
C         2.03222998172337    6.87906290596105    5.12036812119113
C         2.26022465028473    4.68073380239673    5.85171349067918
H         1.53272791445107    4.21830911766917    6.52417063609211
H         3.22368883903441    4.18648741861224    5.99770020985498
C         2.80476520780480    6.57894994181020    7.41546175857141
C         1.86972123838373    6.79655353131929    8.42565626213228
C         2.32327688870148    7.21193200501920    9.66941445282665
H         1.60474311904722    7.36407749382727   10.46017563283345
C         3.66980294852194    7.42721483198273    9.91613256383022
C         4.57580073557178    7.24055897308667    8.87915480313500
H         5.62629333217704    7.42100331244308    9.05579140856081
C         4.16501735206781    6.81651874911924    7.62680881641323
C         5.15654248587700    6.61785826249382    6.52013676350773
H         6.11909966194029    7.04212300286018    6.79109380387137
H         4.81101419059497    7.09402181753064    5.60282001998809
H         5.30174073858066    5.55691434707810    6.31721558065522
C         4.15334467247614    7.84392408989139   11.27002898554046
H         4.70297994290905    7.02617057892769   11.73506979932206
H         3.32318338245986    8.10713430248840   11.91983651981582
H         4.83109804747348    8.69271939250934   11.19649701718464
C         0.40547803269586    6.58229838195759    8.19174268043542
H        -0.17523933797097    7.22262282226500    8.84998593540087
H         0.13260981873094    5.54751596198165    8.40085381869535
H         0.13454314937625    6.80863034329137    7.16265466704801
N         1.69010563037490    6.10781604074568    4.09540781129833
N         1.69010284727471   11.54418547431139    6.14532707443058
N         2.37436374994872   11.54418690041568    4.09541088014724
C         2.03223352852714   10.77293903004127    5.12036856654588
C         1.80425295317639    4.68073432736036    4.38901528825029
C         1.80424469178638   12.97126729580588    5.85171801520190
C         2.26021986689485   12.97126830082653    4.38902090020418
H         2.53175369100113    4.21831784901087    3.71655678346642
H         1.53272203251132   13.43368799229982    3.71656146491562
H         2.53174189454655   13.43368756439793    6.52417775298032
H         0.84079280381521    4.18648055140447    4.24302669246898
H         3.22368168964252   13.46551967866201    4.24303560522676
H         0.84078217953672   13.46551724044542    5.99770365570155
C         1.25969994369128    6.57895124279204    2.82527256184367
C         2.80476843956428   11.07305169679537    2.82527525774587
C         1.25969659405342   11.07304950154214    7.41546181196155
C         2.19474299183438    6.79655019294085    1.81507623016384
C         1.86972220670269   10.85543912778173    1.81508452346373
C         2.19474012694550   10.85544081289990    8.42565564360717
C         1.74118662763436    7.21192778692335    0.57131791519749
C         2.32327576269476   10.44005743556112    0.57132676131467
C         1.74118312040117   10.44006357813644    9.66941375933471
H         2.45971928702980    7.36406574193675   -0.21944567536030
H         1.60474106551090   10.28791209356508   -0.21943349073016
H         2.45971669022435   10.28791228461261   10.46017396074256
C         0.39466063016582    7.42721286990666    0.32460109260331
C         3.66980252084079   10.22478244515242    0.32460454109106
C         0.39465632934060   10.22478535827411    9.91613191572087
C        -0.51133613536408    7.24056121663934    1.36158061132804
C         4.57580294360290   10.41144957969098    1.36157792264912
C        -0.51134088601802   10.41144454166607    8.87915427635401
H        -1.56182774545278    7.42101371511589    1.18494693798917
H         5.62629511223529   10.23100400725988    1.18494048738669
H        -1.56183408093529   10.23100385105089    9.05579087393575
C        -0.10055182424387    6.81652408296967    2.61392732279511
C         4.16502125704448   10.83549045426301    2.61392439291284
C        -0.10055622201162   10.83548477797967    7.62680869996048
C        -1.09207490557486    6.61787307435814    3.72060290693204
C         5.15654899482516   11.03415645747938    3.72059307370050
C        -1.09208081861498   11.03415078977477    6.52013716742329
H        -2.05463322743087    7.04213372234800    3.44964318031626
H         6.11910306026406   10.60988220178121    3.44963951843501
H        -2.05463852186608   10.60988593969665    6.79109228143514
H        -0.74654574738474    7.09404596257915    4.63791468825658
H         4.81101930402212   10.55800715778819    4.63791673423376
H        -0.74655256513643   10.55799029771050    5.60281885558898
H        -1.23727052191650    5.55693084988036    3.92353442069625
H         5.30175438129483   12.09510209675596    3.92349973715491
H        -1.23727787580908   12.09509562796627    6.31721966605275
C        -0.08888179469198    7.84392034597740   -1.02929563492293
C         4.15334201151982    9.80807075339433   -1.02929197150855
C        -0.08888621486101    9.80807657589810   11.27002811787345
H        -0.63851621585156    7.02616575965021   -1.49433562061769
H         4.70297378153623   10.62582405648889   -1.49433736557952
H        -0.63851380531354   10.62583385806916   11.73507133037324
H         0.74127925280278    8.10713048932101   -1.67910361065748
H         3.32317961314356    9.54485587304410   -1.67909621418604
H         0.74127418152339    9.54485858945639   11.91983367699591
H        -0.76663605892312    8.69271505338360   -0.95576437631344
H         4.83109787576677    8.95927754153738   -0.95575848979810
H        -0.76664672162045    8.95928698942035   11.19649593459104
C         3.65898607395638    6.58229133091756    2.04898727506848
C         0.40547887010430   11.06968838795054    2.04900290071432
C         3.65898418525382   11.06968977181585    8.19174178436740
H         4.23970261533056    7.22262547619334    1.39075216221123
H        -0.17523704121512   10.42937259822438    1.39074871719963
H         4.23969912250167   10.42935752452049    8.84997864185447
H         3.93185502118630    5.54751144932879    1.83986246658015
H         0.13260838137983   12.10447495418067    1.83991063704282
H         3.93185933127381   12.10446828138957    8.40086052141313
H         3.92991989833715    6.80861092563411    3.07807851831136
H         0.13454816485894   10.84333650734854    3.07808847903926
H         3.92991757589031   10.84336438988266    7.16265243217757

