29
CSD_code = CISCUE | q = 0 | S = 0 | Stoichiometry = C9H6AuClN6O6 | MND = 2
O        -1.26730085528507    5.46995548645811    8.20692835576156
O        -0.52649178603707    4.98603987107342    6.23831246087337
O         3.15169678578542   11.53014392796255    8.27566982604020
O         2.38513158135422    9.89717025291652    7.09583945443714
O         0.31887998902663   14.61361630907845   10.39354067188740
O        -1.77259559687252   14.17946466086853   10.64332467207598
N        -0.15482335250477    9.16581055160657    7.27210362618618
N        -0.57828873465945    8.04152046558842    7.84853237689747
N         0.04858899211499    7.67087493406932    5.77135475143804
N        -0.76982040485723    5.74970912730479    7.14731351688713
N         2.25194061816605   10.85060572522068    7.84642953251434
N        -0.66385904188685   13.93479624694283   10.23252069402524
C         0.22066767159353    8.98721006607724    5.98795297039995
C        -0.43801258131981    7.12766246386327    6.93362222097855
C        -0.20797033476465   10.37055804386745    8.00033909176570
C         0.90580597353512   11.18746445892592    8.25649125779592
C         0.74436561840944   12.35935849719627    8.98619048058254
H         1.60171562186674   12.99189164640565    9.17773190926362
C        -0.50342421298008   12.70019298397702    9.47333443926948
C        -1.60421609712352   11.87427630831466    9.27112777329665
H        -2.56148586423615   12.15505371730054    9.68366467675207
C        -1.44623042059396   10.71382623122521    8.54200490765090
H        -2.28372506540338   10.05387725394666    8.37829735390925
C         0.34622619330146    6.98926067791393    4.54277044210601
H         0.66745898949503    7.73053012333777    3.81347814108317
H        -0.53409325473005    6.45882886830258    4.17942687930910
H         1.14165396599914    6.26052290330830    4.70118964756477
Au        0.94223449081277   10.42169304998521    4.81156279196111
Cl        1.70267111180131   12.08098514694762    3.54044507731669

