87
CSD_code = CISHIV | q = 1 | S = 0 | Stoichiometry = C42H38AgN4P2(1+) | MND = 4
Ag        8.17802643050951    8.39423907009397    5.09729776323619
N         6.94819684300335   10.06485384158811    3.92680062354303
C         5.77319133958125    9.97651954659406    3.35284888907970
N         5.30858868084696   11.19112859291136    3.00724121737345
C         6.24527348181005   12.10716516075394    3.38470688036484
C         7.25643090124079   11.39322287520456    3.95503231606853
N         8.72804878905128    6.29939566547425    4.09665831082679
C         8.58742200375670    5.12045301425779    4.65278645469045
N         9.38432576704008    4.20818268038998    4.06679689972561
C        10.07450052288669    4.84612400987857    3.07902652851702
C         9.65707957729382    6.14339320010714    3.11119456229002
P        10.55604731002774    9.14267000722333    5.57483955591038
C        10.69802256606994   10.71486544750682    6.48704494372877
C         9.55118945059875   11.20410459249537    7.10368858544514
C         9.59696538947565   12.37912619943243    7.83126015687530
C        10.78932539851970   13.07636849542347    7.93723168433178
C        11.93251119747274   12.59788819041542    7.31512521039235
C        11.89271558904879   11.42031045438767    6.59125784906326
C        11.69410881415481    9.40433716627121    4.17892926978866
C        11.12866116291920    9.86986845206243    2.99526693599340
C        11.92592809781091   10.12938594663483    1.89635033012362
C        13.29349695806965    9.91800888227928    1.97163791830312
C        13.85950454337562    9.44542456873905    3.14478774440283
C        13.06666088022064    9.18811829487733    4.24904019214337
C        11.48022805057625    7.98879372496517    6.63543936092470
C        11.88433369793636    6.77570016101734    6.07897057042079
C        12.49823067324639    5.82102471874717    6.86605956349559
C        12.70063440032582    6.06138329421557    8.21698599685409
C        12.28337122791643    7.25710597210122    8.77761254891891
C        11.66900657004943    8.21849431111056    7.99401521105867
P         6.64393212130522    7.98516757535912    7.07306310677676
C         7.13813664673887    6.61179711380829    8.16501904845885
C         8.48122278206543    6.24702393373218    8.15447763907234
C         8.93461844158487    5.22917030224180    8.97300686925840
C         8.04433268964462    4.56235596913427    9.79955871611789
C         6.70354162942804    4.91495954594798    9.80486255655775
C         6.24628806501240    5.93686162397212    8.99213318533688
C         4.90798790153217    7.58463705799852    6.70010637295617
C         4.66826348051638    6.88287087662875    5.52224187763196
C         3.38038055293768    6.51657819441179    5.17855396704449
C         2.32260368413511    6.85631073805499    6.00735228322850
C         2.55544655227995    7.56318331101663    7.17624968556145
C         3.84310449067901    7.92883970471716    7.52667435768596
C         6.48002736035990    9.37660990536551    8.23370802797728
C         5.87564842574452   10.53533105783088    7.74639553373959
C         5.78465406679591   11.65936374813070    8.54303382896116
C         6.31123394550373   11.64146366070764    9.82643863826928
C         6.93092057660777   10.49978578473653   10.30586124036272
C         7.02206360334016    9.36823835941911    9.51324642253395
H         5.24080596128809    9.06273751898264    3.17808945540071
H         4.43565855897091   11.39178224090458    2.54592886431513
H         6.12326007663678   13.15744079713637    3.22338530825392
H         8.17629464735922   11.74397109874039    4.38027151404221
H         7.92650433196455    4.89841467554875    5.46803911957140
H         9.45767678475842    3.23224162167242    4.30551661283935
H        10.78212337568429    4.34487919846844    2.45266355335287
H         9.95849361444641    6.96643002810211    2.49443858319689
H         8.62119384354318   10.65258896688598    7.00796571752881
H         8.70284416885616   12.74743025773369    8.31206564756522
H        10.82900347498201   13.99550181735958    8.50175248488355
H        12.85943599327064   13.14556621758704    7.39579957727700
H        12.78433801917047   11.05087320824666    6.10547322366076
H        10.05544387774527   10.01983994883329    2.94752747915505
H        11.48395866893234   10.49265801957266    0.98044911379841
H        13.91830649325095   10.11754867514777    1.11449882685861
H        14.92476540390754    9.27774507233874    3.20058640524455
H        13.51227745702129    8.81112640580511    5.15935265636442
H        11.72024795132219    6.59622540742242    5.02374660542857
H        12.82213863686099    4.88787391429906    6.42862341725669
H        13.18287701841530    5.31582096571569    8.83119119183028
H        12.43633125314906    7.44268311048928    9.83020164400892
H        11.33690433370355    9.14804531935366    8.43503962789605
H         9.16750268420599    6.77177343706947    7.49847886104386
H         9.98040057303944    4.95928869664349    8.96366395665887
H         8.39362415847263    3.76577966896748   10.43875806386865
H         6.01122101068723    4.39200589467980   10.44739378621173
H         5.20035948013537    6.20817983220322    8.99797293983269
H         5.50633478091799    6.63330805274467    4.87954408149704
H         3.19786466602487    5.96890329255353    4.26563625540363
H         1.31582266951947    6.57313583417958    5.74058144862463
H         1.72988352602519    7.82922825534990    7.81932781779193
H         4.02084100234336    8.48599951557918    8.43621881218553
H         5.47741885664669   10.53949987580602    6.73869712325153
H         5.30740878097178   12.55179712941370    8.16578480393535
H         6.24072267204024   12.51967882552645   10.45027356662105
H         7.34582006881050   10.48880518411094   11.30256521204814
H         7.51085779386800    8.48008701847839    9.88817920989987

