53
CSD_code = CISNUO | q = 0 | S = 0 | Stoichiometry = C6H27B18CoS | MND = 10
Co        0.29618232376397    8.93606490427901    4.20444918417328
S         1.40201542076894    8.84191012759024    7.29942565544072
C         0.06987968368279    8.21276012249861    8.36254653708150
H        -0.87522792473398    8.48583516476331    7.90836519390654
H         0.16024248086551    8.67868944047299    9.33853583762602
H         0.13591043501024    7.13359351046912    8.44137357276416
B         1.58157674372959    5.18596618957309    4.57112229298462
H         1.95199210937567    4.07658747542127    4.70479859977477
B        -0.82359208136767   12.66787142618431    3.59670903195604
H        -1.18076770662805   13.77888191509004    3.43481722435499
C         2.75851011649101    8.03259573954200    8.23385436738043
H         2.61948978996591    6.95753610171569    8.25357616719425
H         2.75874589795539    8.43676918152620    9.24111681504274
H         3.69835031802017    8.27628036436685    7.75157810133898
B         0.96157683293274    5.81221360250534    3.03939911632981
H         0.91685249295655    5.27096769540491    1.99533547213994
B         0.89134294539540   12.22722011136416    3.69131982729908
H         1.84523290729981   12.90429276878807    3.54257134745432
B         2.50349946414304    6.36848115497682    3.64440885911232
H         3.53044186033311    6.30374050118590    3.07345690989582
B        -0.05169766255745   11.74477812990031    2.30329164453709
H         0.22428172500823   11.99906116985676    1.18669447133246
B         2.36975980095146    6.55042795066895    5.37513080486637
H         3.36118861117864    6.53058849784611    6.01302042758516
B        -1.64759201567003   11.28382319184813    2.85056498393564
H        -2.54767848669401   11.29738150674965    2.09200409094438
B         0.73860027837613    6.06492903772085    5.86473132712880
H         0.52683721370964    5.55686391834537    6.91236599282043
B        -1.72320643218829   11.50604516001364    4.60131328630999
H        -2.71690823303683   11.80875466097004    5.15822510817172
B        -0.14835146972780    5.63069899552036    4.39471443804574
H        -0.99878566897379    4.81646841408806    4.39593681073714
B        -0.11700637834364   12.09147297538640    5.12790213638044
H         0.02413186789288   12.78943072948811    6.06901745068843
C         1.33666123759157    7.48290686589512    3.07500959061158
H         1.64053260657942    7.95703120423209    2.14592920746910
C        -0.44207307739922   10.10103944477464    2.66657511398183
H        -0.47206082078942    9.48017831163982    1.77646537278156
C         0.94527970899965   10.61337439749258    3.12427340823420
H         1.80620054318392   10.30867253672292    2.53337282201076
C         2.08967063223825    7.90269694263937    4.36181949371263
H         2.89395833244952    8.62524661552973    4.26247757142041
B         1.10641928519013    7.77685459617207    5.68952289474550
B        -1.49426005697093    9.87405435930273    3.93911249847957
H        -2.38592645258852    9.11466733468460    3.85203840684863
B        -0.44306495818843    7.24507512175236    5.13210528016609
H        -1.46543807329667    7.37795077831305    5.70118586155819
B        -0.57923451803969   10.37450095904923    5.35877456904290
H        -0.81823971387287   10.05625783287563    6.47043969512886
B        -0.23629628954621    7.09227515366581    3.39071997321806
H        -1.04864219747841    7.21854402335403    2.54594250683112
B         1.02169715153139   10.80113502731813    4.75495508536727
H         2.06688940051725   10.68255665846367    5.30870756164621

