61
CSD_code = CISPAW | q = 1 | S = 0 | Stoichiometry = C8H32B18CoS2(1+) | MND = 10
Co       -1.63508929107149    4.35397220317811    2.37323616519182
S        -3.08620353027793    5.68344962086396   -0.30586750987614
S        -3.55190337398778    3.54024269522558    4.94972648199128
C        -4.75403695919458    6.25637841563626    0.12608696740731
H        -5.37578322689587    6.18960298707457   -0.76067709414009
H        -4.72069085610871    7.27582985444006    0.49268521578957
H        -5.14946398576827    5.60530273641720    0.89590665376117
C        -5.05491962070425    2.52132558445288    5.03693185185370
H        -5.57985724865461    2.76651434198774    5.95480234370206
H        -4.80826529551740    1.46582300129015    5.00932035232057
H        -5.67763947552140    2.77393037508582    4.18641807210353
C        -2.71173060700892    7.03703700413906   -1.47074674102944
H        -3.40434994958461    6.95760761410567   -2.30287614402105
H        -1.70093428180558    6.90721770217451   -1.84100303672503
H        -2.81082049577298    8.00248064335478   -0.98700439479761
C        -2.69643995596500    2.80536929569601    6.38114403787986
H        -3.26924683244986    3.05059633293680    7.26979195435078
H        -1.71318999394105    3.25501452988004    6.46398333187028
H        -2.61019176651120    1.72962287166270    6.27875476853527
C        -0.05722309430272    5.60990081040144    2.97228733363544
C        -0.45083952502868    2.66679635253639    1.88548890038995
C        -0.47841365567438    5.82591541073440    1.49564895381486
C        -1.03224837574039    2.59361920095461    3.31915139411120
B        -0.91852017313749    8.21957843319522    2.82832241062599
B        -2.07191746652800    0.44266250839803    1.90360032056343
B        -0.24848108515931    7.01840335190524    3.93170867270451
B        -0.97715039271385    1.37828313880710    0.88581870757070
B         0.36817822754507    7.12139540455727    2.30194323870523
B        -0.56171131965889    1.09686826297216    2.55847609454952
B        -0.97351277362186    7.44429840908519    1.23328593653307
B        -2.02704725222001    1.19772103108381    3.50514170257697
B        -2.44957392899262    7.57711135546758    2.20271475568710
B        -3.37997811977039    1.52696687685414    2.41982165510536
B        -1.99913589217519    7.26774273775916    3.89399688866084
B        -2.71625540259218    1.67710205690064    0.77718084893200
B        -2.11321525445659    6.07848084830662    1.34591760040788
B        -2.65961136205890    2.85224513984194    3.34534989538187
B        -2.76852710964318    5.95126617373726    2.94252802375305
B        -3.12809777682078    3.16290411766513    1.70112997604570
B        -1.36101335788347    5.62828888765389    3.97129989046252
B        -1.60753784809939    3.04148149625032    0.78083149641702
H        -0.73843993911408    9.37013204463874    2.95936290532009
H        -2.24153015692870   -0.70820932415037    1.76182461639185
H         0.47332625468346    7.17432389323042    4.84238980206818
H        -0.26430701717910    1.00425836030447    0.03398298670112
H         1.48862018491195    7.29538700389972    2.00669551931147
H         0.42495483667112    0.59179235961206    2.93914669469682
H        -0.74005708939494    7.93876437971757    0.19488729757411
H        -2.05743600188553    0.64923248257604    4.54521435902834
H        -3.33983430502430    8.29068652701912    1.91276174555319
H        -4.46968088244731    1.13141855352861    2.60881363642041
H        -2.58219586438646    7.74718363938117    4.79259205889571
H        -3.34618247071733    1.39424170103833   -0.17161826308877
H         0.80570426186052    4.97782911051218    3.15436137356420
H         0.57493213501399    3.00628482549773    1.78743621691045
H         0.13146937472701    5.36028292454187    0.72912244925429
H        -0.36878604307871    2.85546235351227    4.13690892448072
H        -3.88592414558567    5.69545294572938    3.21572551350585
H        -4.10659790042373    3.71537726265304    1.35339313688952
H        -1.32993293154417    5.01812630122833    4.98179443991751
H        -1.30991261468587    3.61502284085933   -0.20715338619859

