85
CSD_code = CISTIK | q = 0 | S = 0 | Stoichiometry = C40H36N2O4P2Ru | MND = 6
Ru        9.26486649460864    0.74801285687613    4.28999244296994
P         9.33076665687575   -0.08351957780534    2.14002899056479
P         7.07659419580098    1.40786067610354    4.23630212738874
O        11.26995419040401    0.23007734022466    4.44614414343068
O        10.19158127569056    2.41092639913491    3.43584406847429
C         7.46167240043316    3.67183378952273    2.67992120403899
H         8.48370023574935    3.31973209953013    2.61560968298431
C         6.54237024994180    2.95354661542461    3.43741582277095
O        12.17055365203004    3.34154184180697    3.09354619573941
O        13.31935080895013    1.05119860762252    4.26045125787676
N         8.78311739586789   -0.83791037478538    5.35246424015016
C         6.58616486007492    1.68587147629397    5.97062858264401
C         7.85179193795751    0.25371350974415    1.08224299888079
H         7.60902065726716    1.30933701196403    1.23840196452546
H         8.15002661938900    0.13276705123265    0.03646624963924
C        11.47357199003372    2.42359674712398    3.48073915850283
C         6.74056947701331    2.95291520704011    6.52856685524623
H         6.99563835392238    3.78670678429466    5.88856185060791
C         9.72163634739725   -1.84130480384542    1.85599630218782
C         5.74640313948828    0.23310349764687    3.68423901412385
H         5.99200673494643   -0.75318901117246    4.08758717186729
H         4.81821873833053    0.56949487267875    4.15826956846522
C        10.66414494214494    0.69838708873654    1.17575955648285
C         9.87846175204200    2.75057294111778    6.37126973679552
H         9.82439494412094    3.44721430572894    5.54274820856542
C         8.31169875927383   -2.01281626897611    4.91784855706457
H         8.00875484367970   -2.04127177739550    3.87852666810680
C         5.52382455198260    0.12718898558687    2.17630312949918
H         5.38687098708928    1.12598863249081    1.75389676889682
H         4.58752637725655   -0.41929217746925    2.02790708959389
C         6.27301647871145    0.61306474265400    6.80217334875679
H         6.16149143934141   -0.37946860894601    6.38696799654330
C         5.23646289385606    3.42215726853245    3.56896949175960
H         4.52643867430171    2.88094159221508    4.17913576722728
C         9.59644088557730    0.56580169512448    7.08027147514435
N         9.55361399385714    1.49373749248987    6.10126175408492
C         5.77007787278197    5.29425291814196    2.16514065434912
H         5.46575551284927    6.20406912725417    1.66894130427125
C         4.85545015949338    4.58814067972210    2.93261705992164
H         3.84302832671162    4.95097246000189    3.03614518456452
C         9.30797879405948   -2.55554709582850    0.73752061924680
H         8.69436983141989   -2.08474504842447   -0.01547918995520
C         9.16941114882109   -0.75388298567994    6.65862271502266
C         7.07251713342740    4.83972023667254    2.04505780765140
H         7.78971389401895    5.39684194672831    1.46082266104849
C        11.95740655286688    0.19110166513317    1.27410718186737
H        12.14094558836362   -0.72131744829242    1.82460785735414
C        10.90958268607102   -3.78383243525607    2.64278909521529
H        11.54050797003238   -4.25769609161789    3.38039217792162
C        10.48410251101727   -4.49394043816496    1.53163910000495
H        10.77807198426300   -5.52522451234222    1.40239077988021
C         6.57123007249576    3.14464118333873    7.88709649086477
H         6.69229117700129    4.13124482408022    8.30965401495562
C        10.44912865684298    1.88722706736184    0.48217061770601
H         9.45810735377962    2.31384273062689    0.42346875750566
C         6.10510726899472    0.80913121768597    8.16080975176596
H         5.86172438262548   -0.02941044552751    8.79716234944713
C        10.27699491431254    3.16200719254752    7.62801185369155
H        10.54960331382136    4.19050152717773    7.79852903764319
C         9.09921556613711   -1.86129086542296    7.50653398137001
H         9.42561861794868   -1.76984518788813    8.52961961947290
C         9.98044205964394    0.91605036989350    8.37749684269415
H        10.01581872059977    0.16922149301350    9.15369978103210
C         8.21139766696245   -3.13556110906171    5.70411021938893
H         7.82741238535657   -4.05276874574676    5.28729709515744
C        10.52840821853536   -2.46502016807755    2.80643217826706
H        10.86087598860169   -1.89966490389503    3.66889496204008
C         6.25794497752662    2.07287893665742    8.70687334113166
H         6.13494577912353    2.22174507689140    9.76918304174855
C        10.33076559228483    2.22135862756566    8.65146847680496
H        10.64473814058377    2.50659297918705    9.64371888727705
C        12.11501821189844    1.13274318247084    4.11210902840223
C         6.62326477125604   -0.60645986572414    1.40551409059361
H         6.91914675006460   -1.49869732479087    1.96365405701016
H         6.18861863068355   -0.95166342629429    0.46415241173237
C        13.01525317765481    0.85880436011321    0.68494032591607
H        14.01565263369402    0.46695363174106    0.78789126945455
C         9.68635703974259   -3.87773568208029    0.58183845949207
H         9.36091238981158   -4.42841246634849   -0.28900629191845
C        11.51099795941649    2.54714603234295   -0.10653831520606
H        11.33817005912468    3.47633308233457   -0.62969282927702
C         8.62503340318036   -3.06602592516938    7.03612397803227
H         8.57316823790300   -3.93097633509341    7.67775242231598
C        12.79494374475046    2.03949676330245   -0.00183002374041
H        13.62435423587831    2.57328066612357   -0.44031433258054

