83
CSD_code = CISVIM | q = 0 | S = 0 | Stoichiometry = C38H40Br2N2Ni | MND = 4
Br        9.45515280769123    6.53941085134003    1.37375455647531
Br       10.55146510973830    8.81273500461310    3.36918878538006
Ni        8.61206473654657    7.80640617677816    2.98330475691731
N         6.72499981102927    7.61540430232822    2.39324922726022
N         7.81646120208845    8.26658347316686    4.72799906741044
C         5.92611001089573    7.89668754416469    3.35957207837311
C         6.53640993386359    8.15497841915165    4.68409644572184
C         5.46754764599940    8.28821548203913    5.66886576886940
C         4.30070868456676    8.22166999873298    4.87488155972785
C         4.47698640219238    8.02105976171591    3.48737669372773
C         3.33209164422356    8.00545321682283    2.71082294422742
H         3.39552219352476    7.88230289575751    1.63867329599071
C         2.04477036975758    8.16348430899541    3.29235410484413
H         1.19171320636682    8.14449279420712    2.62876976428505
C         1.88590110886334    8.33498073306262    4.65582865808007
C         3.06880624233971    8.36023101573670    5.41786590090966
C         2.85356765107877    8.55787408966346    6.79454093967644
C         3.98614939910825    8.59832405551301    7.58781060101502
H         3.91443329469931    8.73932877301691    8.65710627520495
C         5.28621247436927    8.46611710356059    7.02892841753069
H         6.13511051350283    8.50548234410282    7.69715441450934
C         1.39947609623464    8.65743887226678    6.89261676757479
H         0.85951750041113    8.81107511573018    7.80935134480078
C         0.84091062653230    8.53023730510180    5.65788675165732
H        -0.21156970429708    8.56675398335667    5.44225659343602
C         6.24528312672621    7.38446042980019    1.09596527713580
C         5.57077394426569    6.19837387529245    0.78342359755190
C         5.10853688018113    6.04134861239498   -0.51534563522852
H         4.59187984211023    5.13395665816282   -0.78704391335324
C         5.30570494642873    7.02147496418557   -1.46859049871501
H         4.92466984213002    6.88352526204484   -2.46932278306119
C         6.01772784905203    8.16479497517737   -1.15435657206948
H         6.19295663029320    8.90767372969737   -1.91530683016721
C         6.51574896911407    8.35819031905463    0.12309629705985
C         5.44712906782920    5.06858708959984    1.77999936022242
H         5.80233536466281    5.40438787887452    2.76035075009781
C         6.35007377727089    3.91490568001766    1.33101777580544
H         6.01317783249982    3.51200083747967    0.37948625477844
H         6.33410474803591    3.11701305563410    2.07039736842204
H         7.37434830322880    4.26083521168286    1.21137211988270
C         4.00318184932505    4.59388158796263    1.94918410487405
H         3.36181123271602    5.40711470413099    2.28553382857286
H         3.96267480698469    3.79864354232411    2.69083473527476
H         3.60751267703889    4.20523852819401    1.01469344125760
C         7.30308162089641    9.59364345796449    0.49819554718054
H         7.97952372909969    9.33553272374093    1.34298134033034
C         8.19358458662847   10.09758963931755   -0.63421675802806
H         8.78207193077686    9.27870655196712   -1.04134428610922
H         8.87677272987176   10.85287975834052   -0.25193787267456
H         7.60718997192702   10.54659153198949   -1.43258722415360
C         6.35474127059486   10.69487454684465    0.98094757485627
H         5.67579576807373   10.98286296060989    0.18009076119176
H         6.92206284890342   11.57120638095370    1.28710998659436
H         5.75645741282599   10.35868063005832    1.82803803720291
C         8.47579736316921    8.54005055970270    5.93561002239938
C         8.40924020173072    9.81749782340016    6.50502812848859
C         9.07081251247827   10.02351043041426    7.70690882697134
H         9.04214834273062   10.99955365636207    8.16587547960800
C         9.77197572322229    9.00436083617291    8.32176563863920
H        10.26804548533352    9.18434194869222    9.26362680281549
C         9.86735090704688    7.76311817435330    7.71942153061263
H        10.44427951887388    6.98542107375740    8.19265451312439
C         9.23910869104940    7.51430453727363    6.51063821500860
C         7.74328073974801   10.97239353130745    5.79211707311638
H         7.21816846828350   10.60216714066572    4.90497166738844
C         6.71603614228488   11.68744393855771    6.67106467520758
H         5.94269056078427   10.99844157558628    7.00670625901961
H         6.23975844501406   12.48519317308244    6.10473054862687
H         7.18887361784888   12.12841213294945    7.54424483059338
C         8.82416497322108   11.94778860504737    5.31527045223067
H         9.34919084735804   12.38205317117156    6.16191883126307
H         8.37392420623405   12.75206394764460    4.73720866482113
H         9.55086744149274   11.43221335212572    4.69152216034556
C         9.32705214560137    6.16968910218832    5.82453671161532
H         9.16919252131622    6.31981902033510    4.73404703791149
C         8.21505787917297    5.24911071073003    6.33495126780303
H         8.33925065411066    5.06758908825974    7.40118170830644
H         8.24863665096022    4.29432961660270    5.81454808418458
H         7.23155246420347    5.69277927413779    6.17844644744728
C        10.69645348514678    5.51399509557957    5.98194254021483
H        11.48213357406689    6.22044224787890    5.72397043767593
H        10.77117363127891    4.65905978826190    5.31308864690298
H        10.85395028543476    5.16125370335958    6.99858129931732

