55
CSD_code = CISWAD | q = 0 | S = 0 | Stoichiometry = C25H17F6NO5Zn | MND = 5
Zn       10.16746158137545   10.45491209270345    5.51167174742719
O        11.43120072307320   11.31563416076111    6.67194818252313
O         9.48747070093033    9.42467820609519    7.05007185272715
O        10.96987776351431   11.42159047437518    3.97547052838781
O        11.15331709386754    8.88665522880950    4.97139228365200
O         7.05799688818433   14.52505818148645    4.31447714162261
H         7.94502532122525   14.90833978891417    4.30171399702636
N         8.36468544220544   11.25269056750427    5.13681288979042
F        14.24431937692308   10.97528403137580    6.78857326233239
F        13.45195443410422   12.40293884169367    8.18917153208953
F        14.04203194376866   10.45174060603810    8.86572892865219
F        14.47459926440370    7.87478656866342    4.40089717628754
F        12.70327308549110    6.66136644153575    4.39965012579460
F        13.34669705131228    7.62074460573612    6.21445217688628
C        13.44133993119041   11.10314257854888    7.86169314323524
C        12.01960917528733   10.60557664401420    7.53760756776884
C        11.56571752847459    9.47494538498991    8.17138246376878
H        12.19129233158656    8.99007490435886    8.89964616589930
C        10.30977807167294    8.90277929199616    7.84149649215117
C         9.93649236323601    7.62473850014837    8.49082376460673
C        10.88383204825019    6.64744151933284    8.78834961767558
H        11.92015752999708    6.80401075275896    8.53290944146309
C        10.48781346736582    5.45528431908755    9.36682054621079
H        11.22400367733200    4.69642294347306    9.58613176837695
C         9.15306921162520    5.23009656281051    9.66300539034606
H         8.85095390020357    4.30025958584167   10.12193287415436
C         8.20485852666251    6.19450077632393    9.36071669078935
H         7.16301212924977    6.01755388066116    9.58419626120847
C         8.59225197541482    7.38025790201044    8.76727750417902
H         7.86605452846798    8.14062014202339    8.52095453259649
C        13.22816152725849    7.79377504844789    4.88519454324573
C        12.34427822718582    9.01796969308285    4.57371379558821
C        12.92470711910082   10.09590641404365    3.94802277383242
H        13.95986475269115   10.04910310893112    3.66020486507359
C        12.19331844068954   11.28790468678604    3.72546109488033
C        12.91102203055825   12.44623342241846    3.14175998546940
C        14.23926870401630   12.72164213181775    3.45817927991312
H        14.76987235380816   12.09077544015469    4.15411402108326
C        14.86244809460522   13.83090259664871    2.91573135296562
H        15.88929192998052   14.04616467560769    3.17088677470648
C        14.17578964379146   14.66610007698220    2.04914220153255
H        14.67036468630445   15.52580497519535    1.62171509203939
C        12.85143856876533   14.40231760886550    1.73762786368671
H        12.31318703988208   15.05517433440153    1.06604929777538
C        12.21881269851329   13.30523415005480    2.28991396482146
H        11.18684902928557   13.08506760847979    2.05878082247080
C         7.23664995013807   10.55607691326435    5.21019108552038
H         7.33984286018551    9.51179856420128    5.45979903071088
C         5.99751290134621   11.13759444863226    4.98775454896703
H         5.10167797536064   10.54120279786992    5.05326342512173
C         5.92282690226444   12.48249702623697    4.68198427527262
H         4.98297354761054   12.97935656831937    4.50039661695107
C         7.10957147466544   13.21338655576947    4.60915315566945
C         8.30987121116246   12.54676598912327    4.84656547630095
H         9.25825126444470   13.06331968057846    4.79501860676072

