55
CSD_code = CISYIN | q = 0 | S = 0 | Stoichiometry = C16H28Cl2F6P2Pd | MND = 4
Pd        5.40700837507065    3.93230406196219    0.00008207927080
Cl        3.52434557041383    3.80883522633122   -1.32422656753463
P         6.81141097203901    4.37254155923961   -1.70201619761186
F         6.09518479486300    5.16416141019464   -4.26366403786155
F         4.28054125257683    7.09979356945423   -3.19331613867838
F         4.88056829495430    6.45889356202376   -1.19046690649482
C         5.90523162750760    5.36372626383735   -2.94882744499025
C         5.03941517738128    6.26902986305736   -2.50704854439414
C         7.28047990703435    2.83505408865475   -2.61111559963472
H         7.62301268434937    3.08214850540231   -3.62249382910798
C         6.02871327864582    1.96088599486828   -2.67360131943029
H         6.24344770425344    1.02275919515864   -3.18203860875710
H         5.22009035735971    2.46457451877681   -3.20366653963591
H         5.68927426233980    1.73429850282257   -1.65180165264876
C         8.37316508483803    2.12805659128314   -1.81079026823495
H         8.06316137035959    2.03794409487941   -0.76673567328955
H         9.31740207139445    2.66700465526685   -1.84693214844254
H         8.53676191038485    1.12701029881815   -2.20520786483511
C         8.35057331856126    5.39085208755122   -1.50679369572328
H         8.97956678187004    4.81581001984128   -0.81781699265316
C         9.07909337358373    5.61247079693792   -2.82797736388737
H         8.45187876750718    6.14994877974362   -3.53705225168939
H         9.38662380844526    4.67335112304217   -3.28171754377119
H         9.97215650997326    6.20946701940981   -2.65153386593522
C         7.98873781737248    6.71257784504180   -0.83172078411186
H         8.89365286711470    7.23640767365063   -0.53140840312418
H         7.39009323701808    6.52846970360116    0.06259443713689
H         7.42967045502096    7.35965738533923   -1.50638150719746
Cl        7.28965323573687    4.05643274904395    1.32409364621563
P         4.00251666210896    3.49233958447303    1.70213804568725
F         4.71858041683677    2.70061299763325    4.26375368388709
F         6.53333845947022    0.76504025520880    3.19337845799828
F         5.93329961283533    1.40596373378554    1.19054800182502
C         4.90873757064364    2.50119743033373    2.94892448538226
C         5.77462502553239    1.59597227965105    2.50712333702001
C         3.53336975343527    5.02978650960946    2.61124159093256
H         3.19073371058898    4.78261517108699    3.62256472234965
C         4.78516903919937    5.90389722579152    2.67388711653612
H         4.57041904542493    6.84198311344005    3.18239273848344
H         5.59372650169810    5.40013889675350    3.20398434325010
H         5.12471277574802    6.13055926221734    1.65213872967555
C         2.44077924853849    5.73683574127194    1.81083325546531
H         2.75091693912300    5.82704769387465    0.76682587510957
H         1.49655256603785    5.19785853067982    1.84680733089693
H         2.27710395453084    6.73784281238518    2.20531505027183
C         2.46337568480198    2.47402454953625    1.50664479417034
H         1.83441785480134    3.04906222839249    0.81763448204893
C         1.73472491655451    2.25229939968879    2.82773236467181
H         2.36190169012043    1.71484936879671    3.53685836674332
H         1.42707141941980    3.19138388899263    3.28146215885338
H         0.84172372766838    1.65524382897732    2.65116531079100
C         2.82532096637453    1.15233752510829    0.83155415800262
H         1.92046750215205    0.62846565375383    0.53112700381213
H         3.42403836165650    1.33651069694942   -0.06269539077504
H         3.38436172673445    0.50526447637933    1.50624157396274

