60
CSD_code = CISYEJ | q = 0 | S = 0 | Stoichiometry = C29H20ClF6OP2Rh | MND = 4
Rh        1.39311612171270   15.47019498740427    5.40172857167699
Cl        1.43959765632021   13.25625188693695    4.98522442491455
P         0.47982005632375   14.86204041830893    7.38500447220047
P         2.35681382123133   15.71072735615514    3.36581780431312
O         1.28033863836282   18.38868916509426    5.99607995124875
C         1.32901866986327   17.26532595980282    5.75961994351850
C         0.21789947091869   16.10764626549596    8.69389727421264
C        -1.05662522309665   16.60470653912321    8.94404746509402
H        -1.90531987886993   16.19365490421352    8.41510006959641
C        -1.23577324274141   17.61985334441257    9.86646311105522
H        -2.22854547121879   17.99753458475081   10.06131278461551
C        -0.14627868583434   18.15340214901462   10.53448287233080
H        -0.28858399009173   18.94414121109381   11.25568342201134
C         1.12864918328012   17.68041302615169   10.26800316108346
H         1.98107011465488   18.10522759675715   10.77695665448346
C         1.31293975588494   16.66829432771286    9.34479875283824
H         2.31028326221551   16.31350417871725    9.12157393249662
C        -1.03831022974377   13.87153934409838    7.46602192734877
C        -1.69788089642976   13.58166375426901    6.27737107289647
H        -1.28465363318107   13.93986308026683    5.34482062245376
C        -2.86419236013932   12.83811802325106    6.29653888396404
H        -3.37213074887301   12.60953321183513    5.37159823948366
C        -3.37532752576196   12.38664665656296    7.50167373203474
H        -4.28212640569205   11.80025103033623    7.51803344643369
C        -2.72865531491316   12.69050179706993    8.69006704496731
H        -3.13344585368917   12.34461184311215    9.62967387395440
C        -1.56593643859524   13.43746129990295    8.68032980438904
H        -1.07353554654832   13.68317466806812    9.61021707714977
C         1.66940554837017   13.75473579274739    8.25258299949587
C         2.97307465798789   13.80549868791482    8.00533417419368
C         2.59842423902966   17.37992928348359    2.67405548445762
C         1.91673696034286   17.90131542967726    1.58258842131711
H         1.19371222926892   17.30041269001094    1.04908333627741
C         2.16726557138492   19.20026736588318    1.17236240058053
H         1.63742101982715   19.60297714593174    0.32174849530208
C         3.08925415932505   19.98081267539653    1.84792945668480
H         3.27832752052454   20.99327937796406    1.52406537733594
C         3.76637961726673   19.46572834074022    2.94328144205346
H         4.48199992343085   20.07575733255140    3.47389330989125
C         3.51852921099774   18.17212292858012    3.35684133948302
H         4.03151648017770   17.75465799256114    4.21549278308345
C         3.95599673783830   14.94789729525106    2.95518344109192
C         4.57797332619541   15.22099406179859    1.73916562269616
H         4.11249574196917   15.88773859034864    1.02697214639551
C         5.79346836079677   14.63271337565105    1.44675983897648
H         6.27273875516666   14.83641018119179    0.50061336634249
C         6.39757834525999   13.78544328051723    2.36314163530473
H         7.34723963614041   13.32833521534477    2.12745546228639
C         5.78718889354381   13.52707321050319    3.57873970745975
H         6.25923287963226   12.87068700803240    4.29442136226832
C         4.56779683942688   14.10832316796430    3.87740396708722
H         4.07681270192950   13.90828138138459    4.81828650740561
C         1.29259045831445   14.94600655378747    2.07682729956044
C        -0.01612065887659   14.81563469777764    2.25904244671955
F         1.21604165710370   12.87695510550881    9.16203020730915
F         3.49967671213622   14.67419335652417    7.14258089868212
F         3.92648519232228   13.07299861578150    8.55650278765790
F         1.84781154331691   14.50916115957651    0.93441150644292
F        -0.89923137749494   14.28581410695274    1.42943903309089
F        -0.62074818800642   15.26337198273268    3.35702335026184

