56
CSD_code = CISYAH | q = 0 | S = 0 | Stoichiometry = C20H27N2O5RhS | MND = 8
Rh        0.04687754341274    4.70673869716487    4.29412027059097
C        -1.83224460654620    5.44206636301739    5.03474898634786
C        -1.85845345648911    4.03982567348622    5.42306059370597
C        -1.76906390764294    3.27567954509332    4.25599344211274
C        -1.76857954816230    4.18630964655736    3.11233434764247
C        -1.92882479384239    5.50642554596520    3.59790034360423
C        -2.26740662830830    6.72944429214478    2.80648004279537
H        -3.33655073053852    6.92535052484861    2.90307308725768
H        -1.73179355364163    7.60210799575977    3.17315260251670
H        -2.04361236119300    6.59895565277085    1.75125443077420
C        -2.09046611335037    6.57404186263176    5.97904114555050
H        -1.78353035068164    7.52273411464005    5.54603514585838
H        -3.15724485605492    6.62561142733239    6.20466832277699
H        -1.54944548780317    6.42456316661664    6.91023024269786
C        -2.03600447433606    3.57150672118513    6.83026108001960
H        -2.98210440877798    3.94720872271232    7.22140923411507
H        -2.03828380667327    2.48641952014848    6.88438374790241
H        -1.23242956456864    3.94420904998846    7.46276817533513
C        -1.81584033413178    1.78635901305897    4.12952580920605
H        -0.84858945328445    1.39374967458870    3.81429060014532
H        -2.07014511291964    1.32706036802264    5.08073815892672
H        -2.56290043253504    1.49712914047958    3.39127821809941
C        -1.95423345477685    3.73963158693568    1.69360033052356
H        -3.02022123046007    3.61944142234713    1.49009229339836
H        -1.56061745777877    4.46937325460666    0.98874395454442
H        -1.47058935929866    2.78058251613817    1.52059574928142
C         1.77738927535689    3.52292236767662    1.55076839752603
H         2.52224969685048    2.81873590183278    1.19945249823447
H         0.81479787446319    3.28839607936945    1.11158754486512
H         2.05786888630735    4.54276908779002    1.31757488822757
C         3.41002094924865    3.63751134160884    3.70547147730279
H         3.56938962872072    3.70084918410483    4.77519447225307
H         3.94980696869931    2.78903360697941    3.30129931864373
H         3.71518804916953    4.56399220291130    3.23507618133801
C         2.04576386614829    7.89584323646722    2.14969113132214
C         3.04188208892238    8.27896637891297    3.04233182222867
H         3.72218831591338    9.07034385640501    2.76876471297056
C         3.13601872221699    7.62275180328790    4.25362779267012
H         3.90141408237092    7.86985226609699    4.97360446838599
C         2.23183057259464    6.61339724593357    4.56051798823965
C         1.21432471007065    6.23532913203787    3.67537560759947
C         1.13940962427915    6.87889433403405    2.45274303562891
H         0.39364980996585    6.62947635300801    1.70986922063547
C         2.30405863585525    5.84603844743184    5.84226044061568
C         1.95711342758860    3.12476395920007    7.10442794044331
H         1.87405254487154    2.46848074265622    6.23051412594096
H         2.98341377804789    3.48317496711897    7.22133996854375
H         1.65461429468630    2.58487372002119    7.99930456412746
N         1.94784729412540    8.54485782868045    0.87196494029421
N         1.24194361712969    5.02892184664315    5.89541180465259
O         2.71834971425445    9.45085077109720    0.63162074917392
O         1.10195806678168    8.14070149431292    0.09616184109479
O         3.19962588471219    5.93894942778704    6.66828938611966
O         1.05507646816152    4.21496724885530    7.01080104209249
O         1.38824279478300    1.94831903613068    3.61529654452772
S         1.63700829799906    3.36361063326283    3.36577573872198

