107
CSD_code = CITDEQ | q = 0 | S = 0 | Stoichiometry = C44H56N2O4Zn | MND = 4
Zn        2.02916008949416    9.23749052143948   10.00391176174404
O         1.48472562545423    8.92173143936042    8.29027667470904
O         4.57244627934584   13.86046271935617   14.07844341523389
O         0.86528640428806    8.62062233590319   11.26700773740759
O         8.44904248695573    9.43312875455613    8.21154478114212
N         2.32969272377590   11.14920143807645    9.78218908047578
N         3.61548015070192    8.37312543602722   10.73213961781282
C         1.24514078952042    9.76683490874476    7.34743971434664
C         0.71346373975183    9.31599652475756    6.09412498877006
C         0.42590473143722    7.83156037254654    5.89732417501875
C        -0.60635675728862    7.37436761871188    6.93711650105514
H        -1.53239980570679    7.93380470107269    6.81857001915305
H        -0.23123112811952    7.53242118973092    7.94311523018746
H        -0.82101941745157    6.31526575813192    6.80963051799494
C         1.72891721875384    7.03744691470993    6.06714623932463
H         1.54934078184514    5.98060052435322    5.88044059599361
H         2.11193514344325    7.14824085581764    7.07634418837563
H         2.48094545380378    7.39142252898219    5.36382669948827
C        -0.13629255626785    7.51360770157550    4.50714423052820
H        -1.08026379104705    8.02611654040031    4.33493336334954
H        -0.32144402162631    6.44357595624161    4.43578229426783
H         0.56885598288888    7.78235698679701    3.72331655970132
C         0.47665199436732   10.23408595803860    5.10385745148355
H         0.07710885945455    9.89060123764214    4.16510989388618
C         0.72309127485768   11.61503903366198    5.23310834367969
C         0.41395308719291   12.53194298258135    4.05980927708954
C         1.25964500169330   12.10678127193431    2.85132823007296
H         2.31828873177813   12.16530642217455    3.09550882708863
H         1.06287170899787   12.76251482278378    2.00552012410362
H         1.03637495280878   11.08730319193128    2.54972128747133
C        -1.07798051814892   12.42427618941284    3.71501880561072
H        -1.34468550485445   11.41507504386888    3.41432421015304
H        -1.32412438374309   13.09847114520339    2.89710326124959
H        -1.68231481654839   12.69298854381038    4.57882280296401
C         0.72602533415219   13.99902971421265    4.36749100445107
H         0.13250423493470   14.35604811107880    5.20586076054365
H         0.48655708853861   14.61143219319535    3.50035532798072
H         1.78109443678097   14.13477514450332    4.59352132793930
C         1.23253509438470   12.05010617780446    6.42369430621821
H         1.44513193438654   13.09470581434211    6.59043947581204
C         1.50611666787322   11.16433651632084    7.49145960670206
C         2.03331153440204   11.74733296234274    8.66743698108526
H         2.18257455126187   12.83067115650991    8.61954752975442
C         2.91995726575059   11.87292542226649   10.82129917048221
C         3.85319755039757   12.88187216080652   10.59992512598894
H         4.16443301015054   13.11852465692913    9.59305614450167
C         4.42871077961819   13.56316831195611   11.65828963709817
H         5.15325025073957   14.33366841658026   11.44597105211794
C         4.07979021937514   13.24732851968111   12.96612614671097
C         3.16356477378284   12.21642237936159   13.19194628823960
H         2.90994976808878   11.97086115673587   14.21089872970534
C         2.59937546985502   11.53761190555843   12.13811129234000
H         1.88495925283860   10.74880504108271   12.31925745074376
C         5.45929484717220   14.93957745650053   13.91442530057416
H         6.38776486464690   14.62820379364465   13.42445000782603
H         5.68502060065042   15.29109262623031   14.91999957919005
H         5.00145967065039   15.75281683275427   13.34192321239336
C         1.07763719739009    7.79109006375411   12.22988420477747
C        -0.00741952250323    7.36401027498094   13.06478047113407
C        -1.41222016903524    7.88749107673885   12.78667340865522
C        -2.45708166028093    7.33507019539318   13.76282569047009
H        -3.43290363905383    7.74238329850198   13.50556025281423
H        -2.23504807297005    7.62535118356480   14.78765100370671
H        -2.52285224128011    6.25097116041404   13.70078527678067
C        -1.41671969307536    9.41753483400242   12.91350619820472
H        -0.76220106059357    9.86201190024288   12.17076998510072
H        -1.07814971139719    9.71494465036846   13.90467676009321
H        -2.42321478609082    9.80184312207084   12.76081138172214
C        -1.83194833174184    7.47728933264982   11.36841698519051
H        -1.14950426031853    7.89126381909222   10.63317777175232
H        -2.83446155337807    7.84263816130790   11.15513786919821
H        -1.82958585158657    6.39292749602062   11.27465577221854
C         0.24770735481252    6.49337004357550   14.09258066884986
H        -0.56997195794811    6.17690347910325   14.71717271973365
C         1.52402638436662    5.97664861772029   14.39010542971745
C         1.67565234750532    5.01495979659800   15.55848940983295
C         0.79756624167747    3.78018872778375   15.31216572063859
H        -0.25356100446938    4.04659330184662   15.24721014839949
H         0.91732806850726    3.06592486343384   16.12432235534786
H         1.08426609391812    3.29651017390453   14.38078914025122
C         1.23552353432021    5.71743332201215   16.85048157674011
H         1.84421123240661    6.60282697244634   17.02179903958087
H         1.35163325348041    5.04797955994287   17.70045751133643
H         0.19484123651414    6.02501102349851   16.80040417665753
C         3.12041277727879    4.54223996679994   15.74176918743141
H         3.47236929564341    4.01340391553794   14.85913123039424
H         3.17520458346563    3.85949692718530   16.58744840423416
H         3.78289929932129    5.38078011841184   15.94342150893593
C         2.56089617108188    6.37657374987631   13.59558172454280
H         3.56389336830942    6.01700093615762   13.76556059101096
C         2.37835202157143    7.27473914696809   12.51866110066849
C         3.53578555600326    7.59953490066208   11.77317014973542
H         4.45568850629163    7.11453564841396   12.11453012659653
C         4.86148498603273    8.63569879660000   10.15704879955189
C         6.02474278501859    8.77937423580101   10.90823958295528
H         5.98438741089497    8.71472860544745   11.98565151603580
C         7.23686680876872    9.05009053447629   10.29739789643543
H         8.11483658971570    9.16065775236769   10.91440643946717
C         7.30999063932698    9.18341896272970    8.91574916196549
C         6.13845879491896    9.07014795196718    8.16219976972197
H         6.20390037544878    9.19007270480302    7.09253176861602
C         4.93560049748151    8.80763772885292    8.77346228620227
H         4.03595833890024    8.71139334485063    8.18465173484327
C         9.66947253031941    9.49838940051127    8.90736850502754
H         9.68582265097231   10.33228378009085    9.61689229428027
H        10.43340072472371    9.65870475064095    8.14812892498871
H         9.87923614700932    8.56464164917734    9.43922000818053

