41
CSD_code = CITFOB | q = 0 | S = 0 | Stoichiometry = C20H12BrN2O5Re | MND = 6
Re        0.95694738219471    2.00173756247351    5.92406380205334
Br        2.13102212597327    0.20552847527958    7.04823492600011
N         0.28238651512089    3.71759986811564    4.67962215693470
N         0.48124320054968    2.83784857135434    7.97277263168222
O        -0.50623158691897    1.24476801984035    5.82622417611477
O         1.95901676911169    1.70691379949470    4.18873233210641
O         2.62379437344421    2.64984874063722    2.29845437410539
O         2.31603575860798    3.34077041328921    6.29838779225085
O         2.82293683342724    5.32507720403895    7.20141859674981
C         1.08675639514672    3.84758975083851    3.64977179713409
C         1.13086992851919    5.00692748991798    2.86093596438000
H         1.81699682200617    5.02483772700961    2.02889786595823
C         0.33755909008051    6.06549447701985    3.20852164830609
H         0.37942693097898    6.99805801512923    2.66509075852546
C        -0.55649460917300    5.93774685179159    4.29281624334296
C        -1.42957436300394    6.96818151939726    4.69642013600004
H        -1.40253022044621    7.90511022681076    4.16058416521727
C        -2.29621950124244    6.77770795594401    5.73661989801484
H        -2.96080797312738    7.57115440841800    6.04212207323793
C        -2.34542461727521    5.54300419431023    6.40387749839995
H        -3.05794714576891    5.39959022035189    7.20193128574757
C        -1.50770468429122    4.52229349476246    6.04662061884359
H        -1.55635838350699    3.55549696523935    6.52643613634524
C        -0.57853466682392    4.70540997599533    5.00468529596233
C         1.98112952764298    2.65041499911452    3.32251119096848
C         1.20738301291841    3.90362153776636    8.24302417634273
C         1.09330979989050    4.64975696680772    9.42082801571406
H         1.72484964258765    5.51571465356225    9.53787768635195
C         0.19739536827309    4.23160868704520   10.36554918296013
H         0.07552778521890    4.76743097317203   11.29495695123365
C        -0.56265070611327    3.06700869217497   10.13352045944390
C        -1.46943086756212    2.56166409325604   11.08755260897506
H        -1.58894977818867    3.09965981048055   12.01600468080160
C        -2.16947707650346    1.41259502076335   10.84580874486515
H        -2.85623727495219    1.02828355879644   11.58410655610791
C        -1.99267586054183    0.72110407081005    9.63761488196920
H        -2.53947091570515   -0.19184748885853    9.46296910346106
C        -1.13091517269226    1.18777407295279    8.68172690845347
H        -0.99230034826131    0.65056665943021    7.75361491551649
C        -0.39667040893437    2.36827416521759    8.90019245929572
C         2.22961889934061    4.27337360004500    7.17489930413352

