74
CSD_code = CITFER | q = 0 | S = 0 | Stoichiometry = C38H30ClCuO2P2 | MND = 3
Cu        0.55599205594945    5.53550988741588    6.41350082387778
Cl        0.90269834737123    6.73819389225335    8.14616016228949
P        -1.30365226516958    4.14661268026223    6.00987622310804
P         2.51567035133726    4.20557320464947    6.67300308518660
O        -0.08480420017145    5.52289350575081    4.61507449894679
O         4.23624273034707    7.52620225755542    4.68821524251514
C        -1.11766031679941    3.06982823222448    4.57313605619161
C        -0.24295992266752    3.48912725168539    3.54029085740099
C         0.03034868377992    2.63689323233744    2.46049366134041
H         0.71356994416554    2.96988336747577    1.69340920434240
C        -0.58028924479521    1.40956036618855    2.38406864928730
H        -0.38819219050225    0.75705667442619    1.54529901005045
C        -1.45338966118699    0.99809032919480    3.39239239592037
H        -1.93970299703275    0.03660680569013    3.31893472899174
C        -1.70061322153057    1.80577813194060    4.48261817269216
H        -2.36548844865248    1.46444125352169    5.26347152701581
C         0.37225380832918    4.75724528014473    3.72756348177964
H         1.27849502058615    5.01762557414348    3.17522096552399
C        -2.66230429335574    5.27743143332812    5.58872368059997
C        -2.58985544684170    6.59629026902610    6.01966030401462
H        -1.71938499824165    6.92281264580380    6.57830571964125
C        -3.61917256477719    7.47194334725389    5.72615627912863
H        -3.56619457731184    8.49746418715408    6.06019372988425
C        -4.71564232545905    7.03208363652351    5.00150168771365
H        -5.51794566905977    7.71684573658199    4.76873057143390
C        -4.78587210820705    5.71661165980562    4.57085263087587
H        -5.64103827747706    5.37793260937863    4.00394666920714
C        -3.76150264562491    4.83393202135882    4.86267151776399
H        -3.81027777531541    3.80518229513328    4.53127502155958
C        -2.06122440489929    3.03758372050998    7.25365314836142
C        -3.20355842689406    3.38291912947764    7.96725530495561
H        -3.74047611374302    4.28696327635678    7.71560314369171
C        -3.65537200283541    2.56697730446811    8.98926518856628
H        -4.54824180248211    2.83603645440577    9.53464734891082
C        -2.96529970284048    1.41181591941334    9.31728540999448
H        -3.32128289681085    0.77832361578034   10.11628592799402
C        -1.81017586163117    1.07561377455105    8.62844781179595
H        -1.26085406097803    0.18317680209022    8.89060213812743
C        -1.35248918305822    1.89238695465781    7.61388827102056
H        -0.44066417004628    1.64550081782317    7.08361246151081
C         3.82218782865584    5.21400896880333    7.43616924967129
C         4.30225965313320    6.34593603276153    6.75573623887443
C         5.26651204864375    7.15879261893650    7.35050047156003
H         5.61366485745140    8.02211367658511    6.80172234858573
C         5.74399323054572    6.86889341705626    8.61269573227844
H         6.48233370979758    7.50701221473300    9.07433153547311
C         5.26179626249712    5.75800322623067    9.28847813592530
H         5.62407938887397    5.53047059784758   10.28031498174053
C         4.31155071101957    4.93625191285402    8.70671688774671
H         3.94019148686205    4.08029945746902    9.25111215725244
C         3.78304678017029    6.70153509256240    5.43599098487702
H         2.87355779911445    6.11192730742363    5.15613327468963
C         3.38070549905657    3.23313159859894    5.39764467799585
C         4.66535662267276    3.50073554959058    4.93999527963240
H         5.26023825203235    4.27312930959625    5.40673353551393
C         5.18735965765637    2.76708935137509    3.88860369304390
H         6.18832369403857    2.97424698589236    3.53969817851582
C         4.43424040722576    1.77507700157555    3.28295289690022
H         4.84711546043275    1.21004048391231    2.46063535117495
C         3.14890969663540    1.50993454761620    3.73093726417675
H         2.55483820533905    0.74053981508123    3.25973930681070
C         2.62316661059439    2.23954257344623    4.77791007982002
H         1.61822271493845    2.04503133820787    5.13273403775237
C         2.17807122403705    2.96033299761604    7.96087837546725
C         1.27384558216054    3.33276925670067    8.95505408979457
H         0.84491673839957    4.32665310067319    8.93650160346427
C         0.94744541490421    2.44499936266948    9.96271956261786
H         0.24985122324398    2.74017180313881   10.73201344240666
C         1.50824544636897    1.17775626358255    9.97774444192666
H         1.25109153796797    0.48158123433485   10.76271390629812
C         2.40094332862831    0.80240187876428    8.98691616921199
H         2.84070858304601   -0.18461920321108    8.99992519422289
C         2.74026908084037    1.68771118624375    7.97893508713853
H         3.44267209753693    1.39144950358453    7.21251911424010

