110
CSD_code = CITPAZ | q = 0 | S = 0 | Stoichiometry = C40H64ClFeP3Si | MND = 5
Fe       11.17291699726572    1.80532632029715    5.65516928523537
Cl       12.78978011644704    0.55793985066120    5.30121872341962
P        11.18211726431260    3.72776224641582    6.70521701479400
P        11.11902800782225    2.08206057778813    3.45125164702136
P        10.68650526825226    0.36412300592357    7.26646463108409
Si        8.98027547320141    2.26091063246488    5.46557907499064
C         7.41651349740053    1.11156072756889    5.44153974757830
H         6.56564782202463    1.69034753822458    5.10223327602362
H         7.18408768706824    0.72670163725395    6.42751597309739
H         7.51359266963346    0.27354093685823    4.76411884502811
C         9.48037569346426    0.61429540489615    8.63302283971500
H         9.21497707440273   -0.34586773327308    9.07585520998540
H         8.58864803949137    1.09309082133033    8.23626097567431
H         9.89862710805182    1.26157288630575    9.39987961109393
C         9.91374400630213   -1.11429531484038    6.48727083844465
H         9.80293871592887   -1.90474645440170    7.23064376277445
H        10.56076006246572   -1.46763548820807    5.68390587982347
H         8.94070587921033   -0.85535653852707    6.08254864989254
C        12.00035585049009   -0.58457431790185    8.16119995531091
H        11.53596969434492   -1.18955037439802    8.94066161077472
H        12.74954420040296    0.06430225136156    8.60860584620228
H        12.50135150031982   -1.23353972599961    7.44384200457934
C         8.51523177663165    3.43824636418319    6.90492560538431
C         9.60066495390873    4.02631087426509    7.55451746323722
C         9.40903497786439    4.79789343485085    8.69492406661264
H        10.24536347973591    5.25375842637743    9.20538460909823
C         8.13094458276879    4.98161554906923    9.19342286477562
H         7.98177914908769    5.57062178301960   10.08767334259999
C         7.04574266221326    4.41625797961037    8.54457262746226
H         6.04786190643762    4.56802532276378    8.93187509314845
C         7.24215384191293    3.64987838959760    7.40842852151797
H         6.39248573738544    3.20295301952674    6.91501198987813
C         8.69749367510711    3.20674599988224    3.82456726156217
C         9.70730758589831    3.08312751280291    2.86832095755288
C         9.54911690475132    3.63857354399455    1.60623277789511
H        10.30375734586299    3.51362066419874    0.84533655936561
C         8.40435314720434    4.35995234478600    1.31130199780408
H         8.28683073277181    4.80124193004125    0.33137837588623
C         7.41300358555067    4.51367049109881    2.26530332770943
H         6.52516477505444    5.08498268073299    2.03331193003403
C         7.55708623537454    3.92318551086990    3.50971458672841
H         6.77817747419827    4.03013688961858    4.25078622388422
C        12.48995366283118    3.84605537639681    8.04638906817821
H        12.56347720772995    4.88750265473958    8.38019506766857
C        12.15904505562800    2.95801936142543    9.23740428733253
H        12.02004801229082    1.94151587840841    8.86688695317822
H        11.22238558259977    3.27444152210939    9.70059573818130
C        13.27675358726277    2.98133196173227   10.27641649107702
H        13.37308997132489    3.99260595748862   10.68117935621625
H        13.02161534175609    2.31566062106244   11.10469235907614
C        14.60543913196193    2.56064726373309    9.65718401526362
H        14.53772063636230    1.52690191507578    9.31023845349764
H        15.39863448937972    2.60882383940126   10.40653209416485
C        14.94299921412423    3.46368869907227    8.47647878586052
H        15.88203436385214    3.14525394235619    8.01890036524966
H        15.07402933267704    4.48993717512012    8.83074054904117
C        13.82673602415514    3.42338569004748    7.43805650660200
H        13.72986883574211    2.40621869739284    7.04588330403266
H        14.08626081334569    4.08059778208659    6.60425139232217
C        11.44164066826315    5.44771427757278    5.96413333878267
H        12.50066658997657    5.47974178120910    5.67313432125191
C        10.58057226242037    5.57346120698135    4.71527910512642
H        10.77712277338479    4.72239448900818    4.06091426747737
H         9.52590882619437    5.52926154174017    5.00065284331084
C        10.85185962454710    6.87415136644398    3.96772991412165
H        11.88997789851946    6.89009430053046    3.62398662089966
H        10.20626860400966    6.92961421618070    3.08832827776263
C        10.60977286296828    8.07069012944029    4.88002513779303
H        10.84454721052276    8.99947049142982    4.35542421209350
H         9.55537628253535    8.10110579481812    5.16364225860812
C        11.46692742821569    7.94557691453519    6.13432541089563
H        11.28103873979148    8.79233455220463    6.79921413589244
H        12.52398464859010    7.96504341344429    5.85627128836520
C        11.15519201857891    6.64383941220416    6.87241821716107
H        10.10080602074905    6.64367761217041    7.15439213385616
H        11.75280470573057    6.61064530641781    7.78472451989228
C        12.74551092938118    2.62993507144939    2.70103862579354
H        13.36272662485154    1.74323461300737    2.91795337421146
C        13.34665931700169    3.77821819881785    3.50389278391187
H        13.21110637939381    3.56895678369915    4.57123870530937
H        12.83091349200790    4.70960258672813    3.26388821752315
C        14.82796439548303    3.92573813347768    3.17304891501352
H        15.26010043664621    4.75073217962417    3.74491296130223
H        15.35513291476190    3.01164962667421    3.45594673453784
C        15.00808406342497    4.18056981976757    1.67867602564196
H        14.54944147765169    5.13826127515663    1.41887132583296
H        16.07095504878133    4.24323748355750    1.43545553422110
C        14.35310155071185    3.07190020810457    0.85914673252679
H        14.85932140192772    2.12442034545615    1.06009776180902
H        14.45970170011034    3.28750052827357   -0.20677298172723
C        12.87045924061032    2.94157121479151    1.21250363624204
H        12.42040120348197    2.15796851947621    0.59989524850500
H        12.37690384540655    3.88963677917823    0.98913799167298
C        10.76743965887500    0.60681494631670    2.34314710187229
H        10.63224186561391    1.03810968273096    1.33984168416278
C         9.44836780147507   -0.01982452224243    2.78318440699267
H         8.66659827581615    0.74262135186692    2.79784170759067
H         9.57104519921130   -0.39857372097865    3.80068146349707
C         9.03414897218600   -1.15875892253007    1.85666648004979
H         8.09978922192268   -1.60008033610716    2.21145822465352
H         8.85444620120454   -0.76108997099583    0.85448703286355
C        10.12598088722057   -2.22074070906668    1.79142782953360
H        10.26097212630906   -2.66512797324141    2.78055406334164
H         9.83465691992269   -3.01758124975627    1.10360158558121
C        11.43706120658396   -1.58942082475366    1.33747864801347
H        11.31473938386613   -1.18931331064646    0.32729275950727
H        12.22472023591468   -2.34547608865015    1.30379282201466
C        11.85276771902384   -0.46496606446837    2.28417038127132
H        12.79797849705215   -0.04444077169534    1.93730324002508
H        12.01658622005300   -0.87905762812524    3.28062260177592

