64
CSD_code = CITQIF | q = 0 | S = 0 | Stoichiometry = C20H32F4N4NiOP2 | MND = 4
Ni        2.66690761972179    2.86445307873532    3.95867072768424
P         2.59584062011340    1.57824387429990    2.15934486844704
P         3.12685321175101    3.99164093858905    5.80649967107403
F         4.35743732439617    5.34327659268501    2.06702387982091
F         0.59829360929991    7.61514590942945    1.12006441366760
F         0.57804307323375   -0.61958490758171    6.56679749815305
F         5.02095237402786   -1.19111752303672    6.30412707557306
O         0.54096075159979    3.69080053278152    3.72725077635289
N         2.44015347751928    4.52835447071289    2.89174544083418
N         2.48525350057577    6.48206494955578    1.59075938012176
N         1.74009979925903    0.89763844005147    5.39408531556409
N         2.79275353908657   -0.91965513158138    6.44610529190656
C         3.02755365362150    5.45905353963826    2.18796925591213
C         0.39060015520081    5.68513367182251    2.42901250453419
H        -0.67604550501263    5.78956511541492    2.51774222200363
C         1.15858882166754    6.56603731588263    1.73182292702247
C         1.06471825896672    4.59018344518425    3.05424114802953
C         2.89641530848300    1.35836128417541    4.92219535174597
C         1.74790285719537   -0.19148296032843    6.11450236799298
C         3.94325419847164   -0.47086793660795    5.98258226235551
C         4.08423197510231    0.66508284688437    5.20974254230430
H         5.05406595958471    0.98068659898196    4.86058100381089
C         2.01821602968083    2.44926252845269    0.63300066830538
H         1.07017972145742    2.92803666220473    0.89402612864019
H         2.74055528565818    3.24659403836837    0.43642351881301
C         1.84030956250263    1.59460824736368   -0.61514326181869
H         2.76384265751266    1.09160279388741   -0.89133131371989
H         1.54807772220438    2.23414613933962   -1.44605714204635
H         1.06188378383026    0.84867162362445   -0.47952273413634
C         4.20223160639459    0.82410787407002    1.65713558737715
H         4.47337455756799    0.10738784809374    2.43723544748612
H         4.07757395292788    0.27039066992858    0.72446788605431
C         5.27772238653844    1.89551683097473    1.52762498672182
H         5.10832645734475    2.51662241518562    0.65141667233901
H         6.26684305371239    1.45033919401060    1.44460992287089
H         5.25810118857184    2.54455372049494    2.40531959850551
C         1.50463054071408    0.09949608014483    2.24997922209237
H         1.56264215204676   -0.45277119441024    1.30826307775760
H         1.90116915985790   -0.54626003611575    3.03822373362767
C         0.07270422948380    0.50672475414038    2.57915050818268
H         0.06967607075644    1.18733332947634    3.43038810425277
H        -0.52666322512957   -0.36614453271866    2.82788839139714
H        -0.39068613864271    1.01331271749935    1.73559926684472
C         4.89143074203420    3.94152459997530    6.34036907107383
H         5.03856148272669    4.59381783746113    7.20337999385777
H         5.09772774443290    2.91565519350722    6.65780131037780
C         5.80688727599150    4.33141148284998    5.18651946602703
H         5.51651019124569    3.78511611221938    4.28666909885647
H         6.84557859243662    4.10221341756705    5.41456464047730
H         5.73166457525976    5.39398281478061    4.96851283372350
C         2.74586248761695    5.79890104898931    5.70277497265467
H         3.37879937623773    6.20599561722244    4.90913907083905
H         1.70950690651875    5.87448888341955    5.36174837154656
C         2.93137976477524    6.61013932404258    6.97850297021486
H         2.24655319771573    6.28817847870717    7.75830291547783
H         2.72690889914408    7.65814107930456    6.76706406070998
H         3.94917597608153    6.53907526665030    7.35438875001243
C         2.25836025649494    3.45632690933587    7.33768902914245
H         2.57680243602160    2.43164341552162    7.54796321220948
H         2.57926947592387    4.08179527474001    8.17492958674143
C         0.74694983838522    3.50430482218652    7.14254107944176
H         0.39407626673284    4.53190365714280    7.09336272952588
H         0.23807173123153    3.00460254862147    7.96374083281152
H         0.47987744413265    3.00633636610935    6.21057180985370

