112
CSD_code = CITQAA | q = 0 | S = 0 | Stoichiometry = C40H67FeP3Si | MND = 6
Fe        4.04333194477745    6.13869430095742   21.88783253483040
H         3.03909590220794    5.39857341237207   22.64580887792679
H         5.47646095337478    6.00208849568206   22.01578170469529
H         4.49899754856758    7.08284589849660   20.90544181738303
P         4.54448109749291    7.62274789502179   23.39148473930864
P         4.53021900190243    4.55416149194983   20.49181206400613
P         2.12665538786867    6.81099619406548   21.12547368195708
Si        4.42138209806004    4.62670112535465   23.52512414550022
C         3.21768356517955    3.65056854759655   24.67692855540199
H         2.47286260683191    4.28947842642324   25.13730778163139
H         3.76931608920683    3.16594550190702   25.47330062862970
H         2.69619572403050    2.87793016763249   24.12199758434026
C         1.32851486083807    8.35116057308498   21.73876149055702
H         2.02570013854007    9.18118165208391   21.66264710912322
H         1.02741296205387    8.21880965387006   22.77536667895971
H         0.44472463430998    8.56456821040297   21.13536231638459
C         0.65488039966852    5.72659084360940   21.32468025626562
H         0.81245049321994    4.77835046014655   20.82000233412126
H        -0.23596090314576    6.20942709305728   20.92211385038607
H         0.51262497750519    5.52988452735702   22.38731845155405
C         1.99815378208888    7.20301668937695   19.33703959035446
H         2.34819589537372    6.36176241063669   18.74532933408555
H         2.64022801397348    8.05835790283557   19.13129720548458
H         0.96860994535725    7.44243357717987   19.06774140339654
C         5.69158640903944    6.89084729548621   24.60245360087618
C         5.58887328479244    5.50803946266856   24.74106492137673
C         6.35180357601200    4.87113209267334   25.70680646226981
H         6.26274243524881    3.80378516209238   25.83628301195418
C         7.23342374241651    5.58179799103460   26.50204512900341
H         7.82928700903229    5.07102023918788   27.24525027663697
C         7.35984226257550    6.95017219357951   26.33338307661050
H         8.05960447779489    7.50991698824507   26.93821799323252
C         6.58398524446636    7.60654319369347   25.39405790823778
H         6.69528695345006    8.67502779070428   25.28113076385895
C         5.47123628228397    3.22846951984739   21.31572427934618
C         5.38138893028368    3.20799107237969   22.70472518505736
C         5.97345302126385    2.16554875897145   23.39976738274723
H         5.87642115301158    2.12121872897365   24.47319368811993
C         6.67978947327444    1.17659667642283   22.73934574441087
H         7.14018352646263    0.37175125270495   23.29482164651585
C         6.80275424218050    1.22574984174506   21.36082831716600
H         7.36779727280746    0.46652943561561   20.83807126259390
C         6.19311772164380    2.24293748187504   20.64889764430353
H         6.30116883973940    2.26367976537110   19.57415443280774
C         3.30401346812812    8.38837125488742   24.57269627344465
H         2.68942696644508    9.05818369469327   23.95896352310340
C         3.85017102151219    9.19153437118774   25.75008295687823
H         4.46222368415298   10.02529283493521   25.40084210912052
H         4.46878254558049    8.54989966321688   26.38040427260785
C         2.69241631089324    9.73989704352531   26.58405521509727
H         3.08810666423322   10.31811673286328   27.42221126720158
H         2.08683132543809   10.41303564698653   25.97104305094762
C         1.81792060115436    8.60411063963424   27.10456395121295
H         2.41247513326788    7.96142355864002   27.75788093451655
H         0.99048316778154    9.00815089201110   27.69219437299710
C         1.27955815823749    7.77778112065583   25.94109368267431
H         0.62667141988016    8.40432474801137   25.32614149936598
H         0.68199944970941    6.94456084241801   26.31852005423114
C         2.43123721570506    7.24988018358351   25.09211010144969
H         3.05220131758843    6.57822052412766   25.69205608855351
H         2.04833858135898    6.67312649929840   24.24452486620571
C         5.49565364206049    9.11488836328090   22.81794218814757
H         5.76848438966832    9.71821887962641   23.69300016729201
C         6.75783087144707    8.64158117594747   22.10643673057044
H         6.44654025370181    8.01112318345854   21.27308438297568
H         7.36151020591296    8.02747084163397   22.77986475016299
C         7.57124045854979    9.81617253848942   21.57582886482851
H         7.89720734874011   10.44743459332025   22.40719584393305
H         8.46442207472730    9.44573326102964   21.06770463717782
C         6.72494925847281   10.64119575101255   20.61217938708756
H         6.44036703487548   10.01910925551794   19.76024458476295
H         7.29978242921607   11.48921749502330   20.23269162050468
C         5.46613690863682   11.13636584705057   21.31542048142971
H         4.85003879000236   11.71190064062307   20.61981112485740
H         5.74959925303589   11.80086804365828   22.13654816878149
C         4.65739055525856    9.96642530946324   21.87054739522360
H         4.31929996217575    9.32435308667723   21.05117507031546
H         3.77962438865425   10.35702900772055   22.39336215187989
C         3.18957401252280    3.52422312300028   19.67006113477075
H         2.44262598229934    4.26301527306748   19.34442729252462
C         3.54997321934764    2.65409277545501   18.46917898527186
H         4.28034598527237    1.89977042544230   18.76518193362606
H         3.97620836777499    3.25722196603252   17.66502829915815
C         2.29756764573919    1.94736588795097   17.94926207161058
H         1.57194305755535    2.69338142343923   17.61359484300316
H         2.55874955984226    1.32694744438504   17.08869300350279
C         1.66912368808329    1.08511060795515   19.03917099495802
H         2.37618520263867    0.30779177747035   19.33797804193266
H         0.77227905568522    0.59374862850190   18.65528202832996
C         1.31933206420537    1.94048547763191   20.25294169459501
H         0.55655081129323    2.67080858681108   19.96806873648792
H         0.90075317077215    1.31484055414239   21.04453619145379
C         2.56614927912246    2.65632579316209   20.76371737613623
H         2.33183832972041    3.27719900590821   21.63349975747091
H         3.29573505712724    1.90941925923187   21.08744195665346
C         5.69694320377846    4.96114465564053   19.10039690742824
H         5.86103810691772    4.05004648583595   18.51132290329346
C         7.02625999198982    5.41825234815114   19.69350788593828
H         7.45161455543192    4.62527889714063   20.31409627550451
H         6.83585846149989    6.27299653181437   20.34203531062030
C         8.01196413777380    5.81489186433833   18.59979887283052
H         8.94643275851916    6.15173918466059   19.05391167291686
H         8.23808240832174    4.94622310484573   17.97495098420506
C         7.42224687380238    6.92207241214561   17.73321494186801
H         8.12820225062465    7.20543005321927   16.94899443349098
H         7.23589148999240    7.80195804992001   18.35309913861217
C         6.11090223810747    6.45361803245221   17.11283075469445
H         6.30616603395188    5.59939688114827   16.45810259886894
H         5.67868004258204    7.24944563464048   16.50108638393005
C         5.11994939450120    6.04572959607641   18.19913845372797
H         4.87972072920426    6.90852609704863   18.82507613989840
H         4.19521500083414    5.69217464275214   17.73367336775200

