52
CSD_code = CIVCOA | q = 0 | S = 0 | Stoichiometry = C24H22ClN2OPPd | MND = 4
Pd       -1.08624327712288    9.34936281194680   -2.02649507704578
P        -2.78886736053839   10.53754140332817   -2.75894548156561
Cl       -0.98225596683582    7.93211688494961   -3.84735437823485
C        -3.14360710719213   11.27001020384277   -4.36817264200622
C        -3.50854659092126   12.60179652248882   -4.52051235826432
H        -3.56265622308182   13.24418250042194   -3.65415174248179
C        -3.79131807523433   13.08872078229450   -5.78454130302598
H        -4.07678560571526   14.12317541240272   -5.91038993895456
C        -3.70608382168329   12.25409264065680   -6.88744263207375
H        -3.92633560683153   12.64123689138738   -7.87161926491795
C        -3.33065256022372   10.92807947679771   -6.73383658987304
H        -3.25479469818294   10.28370043939929   -7.59688673789903
C        -3.04661934537087   10.43204805422543   -5.47523703000265
H        -2.72971764590694    9.40667050797974   -5.33550722088225
C        -4.31607280761790    9.63074052919205   -2.33030242379284
C        -5.58448228103954   10.13205038968682   -2.59103573864287
H        -5.68950034280736   11.08071291002794   -3.09933135969962
C        -6.69836001335319    9.41162073834315   -2.19845053643209
H        -7.68767250132432    9.79625944431453   -2.39893560226534
C        -6.54649445212325    8.19479237715136   -1.55231521512807
H        -7.41930286987346    7.63395263846829   -1.25185471098765
C        -5.28097610530345    7.69209629840058   -1.29317557689048
H        -5.16956753031040    6.74085147998391   -0.79397819611589
C        -4.16402815172516    8.41053822523549   -1.67993142334846
H        -3.15060850346339    8.02297001295298   -1.49794756392203
C        -1.45410699371143   10.46681871094298   -0.39322293065706
C        -2.26846223108690   11.59166280675377   -0.53901654704073
C        -2.56138837028838   12.42677116181670    0.52485634716238
H        -3.18934773092579   13.29093986940535    0.37292473206750
C        -2.05220121800454   12.12029713355178    1.77724655620605
H        -2.26364487571205   12.76963460397346    2.61294386359518
C        -1.30932845275232   10.96841866936514    1.96691507092062
H        -0.96053296009944   10.70892950049339    2.95684814240615
C        -1.02846000205149   10.13553999577844    0.89102261873881
C        -0.30539977308758    8.81317190644814    1.08896576900712
H         0.00788276460746    8.68832114685673    2.12576050170333
H        -0.99086185256343    7.99339801133672    0.82016668701395
C         2.16025328064381    8.75221914224602    0.55593063857434
C         2.85857714323424    8.80937763801293   -0.63473092377586
H         3.92174001619720    8.84172586081795   -0.75632125681716
C         1.89272917222836    8.83768436525416   -1.64874451293708
C         2.65610184763025    8.72803975304951    1.95561427302324
H         2.31061243527015    9.60499622602363    2.50317351269586
H         3.74222548074928    8.72808578431981    1.95307139812363
H         2.31073539989128    7.83605598805696    2.47820724858550
C         2.06599018955619    8.98196304230811   -3.11830348100402
H         1.27913852501577    9.63891734163428   -3.51505986852064
H         1.96679663908634    8.01499484253866   -3.61221192974263
H         3.04331024776133    9.39999234025622   -3.34636915890378
N         0.85042965753731    8.72640183881160    0.23188712139445
N         0.68803276142442    8.76483785404193   -1.09486756902851
O        -2.83767165678166   11.84458489001702   -1.78663555834738

