57
CSD_code = CIVKAU | q = 0 | S = 0 | Stoichiometry = C26H26Cl2O2Ti | MND = 12
Ti       -0.78858612973425    7.32232572358297    7.84514523331694
Cl       -2.19261877758492    5.75803361373829    7.07997363026963
Cl       -2.49779244637166    8.72540556177572    8.14776531069151
C        -1.30055129806742    6.50612482441413    9.95497115746380
C        -0.60044705134453    7.72390752943631   10.14825522328580
H        -0.99045474285135    8.59597466738840   10.65721481563427
C         0.71267732902012    7.55760430627577    9.67435012391016
H         1.51616038179685    8.27499737253636    9.78031876138722
C         0.84191675425279    6.23025352768138    9.19865593599518
H         1.76175812665330    5.74910424500215    8.89400438100464
C        -0.39216097708467    5.58178367348106    9.37947990216762
H        -0.59451179083935    4.53362807158664    9.19728134731496
C        -2.69634757878391    6.20925178588559   10.40940697658156
H        -3.09713754937675    5.37348821841536    9.82254994733458
H        -3.33583370691984    7.07964226346041   10.22559153558346
C        -2.77369859837831    5.84840408479918   11.87567427598982
C        -1.66321981328001    5.41278258003420   12.57373322747060
H        -0.69853088996302    5.33628095909981   12.09628021400338
C        -1.75462636793987    5.05998093333715   13.92064187482567
O        -0.58900960299498    4.64714431551144   14.49764145275947
C        -0.61094409232459    4.25630629271140   15.84804998835521
H        -0.90847380349065    5.08230139653782   16.50238598025958
H         0.40960002833768    3.96015316592041   16.08606127028711
H        -1.28083582120437    3.40549689676649   16.01022079521404
C        -2.97922799531352    5.14462280950944   14.56989672009271
H        -3.08287491655524    4.87887982783924   15.60989487646596
C        -4.09114948583572    5.58064188151455   13.86617488324532
H        -5.04238116321984    5.64647665030055   14.37371076696792
C        -3.99704104535148    5.93149198775144   12.53507795419700
H        -4.87157058631111    6.27050395224904   12.00039878478311
C         0.51322285356076    6.86766495311448    5.99332421688140
C         1.27314751789442    7.73839044099491    6.80342491917577
H         2.25931518179530    7.53508202741362    7.19709307170419
C         0.59494815061300    8.97553412304020    6.88408258022702
H         0.96123026204099    9.87323998872572    7.36627649470121
C        -0.53390857395519    8.90335243263092    6.03868868147138
H        -1.20133150889160    9.72125294429411    5.80147958059564
C        -0.59502074476632    7.60965740159341    5.50028345116283
H        -1.31261356015679    7.25958644795544    4.76981330137933
C         0.88885609883542    5.47301761502836    5.56962040949728
H         1.70025400146164    5.09947824470966    6.20022732879192
H         0.02318713528690    4.81049616357252    5.67229712685425
C         1.33280378126264    5.50839037333983    4.12732610143189
C         2.63289802940768    5.85695532815008    3.81139628805658
H         3.35267820965382    6.07535228463024    4.58520505899361
C         3.05315833820675    5.93287145190466    2.48409542872117
O         4.35959789846509    6.27580548928821    2.29907433611697
C         4.85470725847444    6.34920223220236    0.98475628546040
H         4.77642439269283    5.38530159763036    0.47122142638358
H         5.90486835964084    6.62124089967278    1.07997828556023
H         4.33502074583566    7.11566779404420    0.40060701533011
C         2.14640246480318    5.66191162295357    1.46625031205682
H         2.43841853914343    5.71325312100239    0.42944110899444
C         0.84303617606682    5.31877870203706    1.78736458531456
H         0.14343476037150    5.10902379236305    0.99164935615449
C         0.43173923504856    5.24031381068897    3.10324999872385
H        -0.58516139167037    4.96568559845766    3.34026590339552

