78
CSD_code = CIVLUP | q = 0 | S = 0 | Stoichiometry = C43H29N4NiP | MND = 7
C        12.12327734729902    5.64754804448729    3.78511415667360
N        12.77583877916705    5.56140825257952    2.84555517275161
C        11.78047315092923    6.67519369395330    5.91026135713529
N        12.17404585463167    7.42243524126968    6.68716488193422
C        11.31403953013896    5.77228135957550    4.93410765601900
C        10.10797553134937    5.12300806006199    5.03448293395004
C         9.64488811004123    4.28006537416865    3.95384567987672
C        10.30207015967677    3.12245693716778    3.60117383951507
C        11.31633942707735    2.52597948607905    4.42616261995638
H        11.68152793914582    3.07675340603481    5.28008175682823
C        11.76684893808921    1.27606371680628    4.18917023459926
H        12.49980726889152    0.82277632222296    4.84137962309926
C        11.26717566999927    0.50107326620289    3.09739575721652
C        10.37205987683629    1.14157421685346    2.18482898840371
H        10.05948231301310    0.59490283146897    1.30652094552139
C         9.90817664179631    2.38163243239992    2.43607894146797
H         9.21401489442697    2.86746544398555    1.75387072027671
C        11.60393314215694   -0.83707480653547    2.95051123281430
C        12.43916395895553   -1.50453764222685    3.85987596409375
N        13.10766106143658   -2.06246972269280    4.61012605663830
C        11.06942631762307   -1.63086623659306    1.92411616244870
N        10.61671475803916   -2.28854219684288    1.09710489555902
Ni        8.10502829833992    4.85656751798107    3.01854798116361
C         8.21006077079793    5.56933971379206    1.00146632564214
H         8.39529686323405    5.03547751302018    0.08314646360305
C         6.95072096924768    5.88086764273535    1.55316928674376
H         5.99586891197107    5.64739705852875    1.10215163183542
C         7.13682842441445    6.82306036965199    2.62294138638399
H         6.35105714192498    7.37069277008551    3.11884299241197
C         8.49783276177403    6.98020811124542    2.81050298601062
H         8.98402388869391    7.67813635685697    3.47454376789009
C         9.18107711522851    6.15231108912795    1.83374633588810
H        10.24229498555878    6.19018652332975    1.63740587433328
P         6.77751585073376    3.23391883224460    3.65603817411295
C         5.53688370941469    3.68297486111528    4.91972931929008
C         4.75640080889464    4.80429993245866    4.64697079777368
H         4.92621223368079    5.35483802323393    3.73104060718859
C         3.77213939015629    5.20599825166186    5.52870733882035
H         3.16990813135761    6.07514566298192    5.30829573888025
C         3.56144187016364    4.49202470447234    6.69839116063172
H         2.79689031289156    4.80620285938043    7.39303127846591
C         4.33203849700127    3.37506141487391    6.97303931328933
H         4.16595812031949    2.81412862303746    7.88068565686746
C         5.31599141182733    2.96592979920495    6.08860449547419
H         5.90354086348607    2.08711471141574    6.30799519348897
C         5.68881757316846    2.56093619641296    2.35269028566937
C         4.44320971843714    2.02101338379366    2.65824235788781
H         4.09382234887856    2.01079134090668    3.68057603886816
C         3.65207772660199    1.49804644920552    1.65135272951013
H         2.68467163694511    1.08376497933384    1.89343339687259
C         4.09519385369372    1.50320885779956    0.33839235315014
H         3.47210990197709    1.09625127023633   -0.44361039634577
C         5.33800811548108    2.03136170625851    0.03046137322796
H         5.68850950882530    2.03365344606486   -0.99089725962396
C         6.12968195944597    2.55916598787119    1.03374480143078
H         7.09855603336864    2.97860507331611    0.79777013505721
C         7.53951151960600    1.72054563284395    4.32755404238034
C         7.48485837712465    0.50352592620426    3.65870699118501
H         6.93522127299969    0.41686264425454    2.73299177501345
C         8.14379867495319   -0.60098287242027    4.17109342501023
H         8.10447082218431   -1.54012338876591    3.63959393442291
C         8.86185384499562   -0.49959131448462    5.35013389293033
H         9.38521738175280   -1.35922039472090    5.74098336712969
C         8.91607060666080    0.71070824817814    6.02429138800194
H         9.47533294534170    0.79343405028871    6.94416246972352
C         8.26545987944972    1.81718874205544    5.51347174024173
H         8.31792435583950    2.76801216834428    6.02770218974553
C         9.28514052048057    5.26603823816566    6.24632881523827
C         9.84886120156075    5.04336829003604    7.50129573786622
H        10.89242102938862    4.77826859339959    7.58661400289074
C         9.06757806944799    5.14064668998422    8.63751479914629
H         9.51103407819101    4.96278121741400    9.60533237900816
C         7.72511127002031    5.46779974969755    8.53735023088093
H         7.12030075050871    5.54798359961244    9.42780020948794
C         7.16094359976202    5.69736553938501    7.29324590827149
H         6.11745514158148    5.96123082523668    7.20950773501848
C         7.93437939991586    5.58982060255595    6.15376135257590
H         7.50134487957900    5.79032869867258    5.17328411516822

