68
CSD_code = CIVMEA | q = 0 | S = 0 | Stoichiometry = C37H25N4NiP | MND = 7
Ni        8.94524308717389    2.38053541738217    1.68953254610468
N         6.56856511241557   -1.77766093053559    2.53028396230377
C         7.37246862175227   -1.25090047180989    3.15569587347768
N         8.26255576631140   -0.92103454444285    6.46052227756162
C         8.29325303552207   -0.77804167694721    5.32261581916595
C         8.34855783694390   -0.58498552635422    3.92791356603259
C         9.26165221072244    0.26203503100256    3.36264003186768
H         9.95192906786035    0.78085644873260    4.02597297358013
C         9.31260342889253    0.55744450968443    1.96659741497342
C         9.55743695666165   -0.34505313970112    0.95860837894019
C         9.97063995703017   -1.69713629607667    1.20987663263170
H        10.05480379784225   -2.03043432739940    2.23344904343797
C        10.26835994307504   -2.53675137601126    0.19519940276759
H        10.58129445240339   -3.55164276057412    0.39597596597361
C        10.18841043347643   -2.11582702783486   -1.16942954390397
C         9.77674715666125   -0.77015993741673   -1.42933307362811
H         9.70955026617532   -0.44651886893608   -2.45848298273918
C         9.48488546848129    0.06860970833290   -0.41464401874146
H         9.17974947728849    1.09650480676799   -0.60326932823428
C        10.51621924767947   -2.97652924713795   -2.20805631439648
C        10.94523927550567   -4.29533201932610   -1.98680874560795
N        11.31131958407232   -5.37088818155815   -1.81481866163899
C        10.46026903805598   -2.57895706527614   -3.55375920176512
N        10.42197989837952   -2.25375081510974   -4.65539072464687
C         7.74447715719474    4.00312976114431    2.57501437535658
H         7.96839755851767    4.77059651577138    3.29884068614503
C         7.90556561114211    4.14721472975781    1.15015583733938
H         8.22934102644864    5.05932867852092    0.66848306424912
C         7.29966252656503    3.04682541646785    0.51619246842440
H         7.10072892034190    2.93797672910914   -0.53827061741475
C         6.91955762183552    2.14343118472086    1.53257321266640
H         6.33839128879030    1.24351393090966    1.39138660336051
C         7.13812645851941    2.78331187335129    2.81305351642487
H         6.78483728925090    2.40605423153797    3.75999802465603
P        11.02584217074489    2.91650283975178    1.59675238678832
C        11.72251503747216    3.41524493941078   -0.00614845254799
C        10.86660197064216    3.68792912066102   -1.06575828098366
H         9.79810667693168    3.58590591954069   -0.91983648485677
C        11.37670847634552    4.07776931631204   -2.29133575326032
H        10.70864139909851    4.28500633942361   -3.11384789008961
C        12.74577910668065    4.19655844124476   -2.46149397186996
H        13.14671031047150    4.49841377503598   -3.41721854303068
C        13.60458035111579    3.92135160468339   -1.40785595186909
H        14.67215673429307    4.01038476320562   -1.54385183165491
C        13.09969221267624    3.52867760096517   -0.18252780035695
H        13.76741281173392    3.30121380192307    0.63717041400712
C        11.38386766670441    4.30550611671898    2.72095068040312
C        12.15369054128568    5.40762422307864    2.37394551642826
H        12.58339942264704    5.48234264115406    1.38567579383867
C        12.35985469419911    6.41899285900705    3.29739418269027
H        12.95625497070897    7.27677774640590    3.02413668855311
C        11.80311918839038    6.33811861975550    4.56264490688709
H        11.96744597410001    7.13097714184282    5.27663907032027
C        11.02272943785728    5.24567107794835    4.90889217574858
H        10.57690234183349    5.18599720936175    5.89082081254389
C        10.80763704850554    4.23830389878444    3.98868923455194
H        10.17251423622165    3.39291520027184    4.23571252580057
C        12.22060329352689    1.63786059047278    2.11466519824659
C        12.73594731398562    1.56600769040798    3.40317044032148
H        12.50199481203202    2.33579634946961    4.12515683023630
C        13.56167095917136    0.51373248923699    3.76165240125158
H        13.96123236714933    0.46593974669964    4.76372710234968
C        13.87057537175400   -0.47490773713893    2.84337022669492
H        14.50836986611020   -1.29744548943725    3.12891477534283
C        13.36171986545999   -0.40613045983910    1.55551784971917
H        13.60266536860551   -1.17342088347968    0.83527626523646
C        12.53999086251426    0.64257312068449    1.19241083108369
H        12.14104856005562    0.70034462568917    0.18877018677105

