82
CSD_code = CIVNIF | q = 0 | S = 0 | Stoichiometry = C32H45IrN2OSi | MND = 6
Ir        3.69712099608286    2.00614800337129    3.98917039084171
O         2.10118352755359    3.16774520859268    4.83026087089746
Si        1.28820519408333    4.51879449754807    4.90243956032199
C         0.37438159404334    4.96900178487460    3.27501498206073
H         1.05732372304877    5.33922459686872    2.51440743870850
H        -0.37019154494621    5.74129295313776    3.44211688349531
H        -0.14059968992558    4.10609321596021    2.86030646051545
C         2.36853019845937    6.03800934119151    5.36127081334599
H         3.15577278024250    5.76273063658477    6.05758904963607
H         1.77583194887897    6.81832379563660    5.82866817182819
H         2.84554566633817    6.47738700146497    4.48886727002923
C        -0.06806602102572    4.38410694673822    6.25034418701874
H        -0.77664090521786    3.59154634106684    6.03013533609812
H        -0.62834638884091    5.31055731791584    6.32553324705030
H         0.35678202487703    4.17856673763254    7.22795945964536
C         4.28820978118616    3.76512951989028    2.82505815160449
H         3.90979023033254    4.60395119276943    3.39669305557321
C         5.76775684589800    3.80001857631429    2.52910690843066
H         5.92823059580127    3.62298665684762    1.46459509798094
H         6.15448559986917    4.79654727619044    2.75144939163808
C         6.54173897991197    2.76792176256030    3.36810183399361
H         6.85077894167000    3.23269947681407    4.30678667264106
H         7.45326111876267    2.46084180832054    2.84294188133647
C         5.72367447519329    1.54380055494257    3.72054281817089
H         6.18106351333391    0.98763972439374    4.53735794385456
C         4.94978714295553    0.79902337672739    2.79220621898477
H         4.87262404299223   -0.26715334072295    2.98455097283458
C         4.88828885351222    1.13154766373939    1.31213943254252
H         5.83672810343572    1.56994733879305    0.99881397540354
H         4.75856806608981    0.20810927049928    0.74421443960998
C         3.71850853401697    2.07612678915722    0.98426346336866
H         2.83210167202471    1.47320316869420    0.77612297876962
H         3.94096416191154    2.65348686419889    0.08017788717376
C         3.38224992081895    3.01604590088559    2.11614175147727
H         2.34031884802430    3.31809087795878    2.14770528934791
N         2.40491971405359   -0.40601932510846    5.20529179901552
C         1.77526898078466   -0.69772285378313    3.96398571053146
C         0.59930398402095   -0.02927535593083    3.61355301052196
C        -0.04312443953402    0.91303261532345    4.57336151191572
H        -0.98582080908317    1.28302520965801    4.18099885002736
H         0.61755801655853    1.76151844568791    4.75398781540561
H        -0.22561275282484    0.42547704404523    5.53029078020718
C         0.04929372223568   -0.27901563444526    2.36677563710090
H        -0.84997123300599    0.24416628002483    2.07523574577109
C         0.62379053707561   -1.18432349711595    1.48407034862589
C         0.01149717361549   -1.41021165270907    0.13503023847699
H        -0.99067734430136   -1.82476878820950    0.23895791476925
H         0.61053577990055   -2.09749093443188   -0.45672733650475
H        -0.07465114681436   -0.46804336655056   -0.40395693816142
C         1.74835976438277   -1.88515283041792    1.88858001482441
H         2.18445073673815   -2.62179649721026    1.22898374490901
C         2.33266874167892   -1.66385916313252    3.12845266964244
C         3.50146790854042   -2.50076172196246    3.55913588434850
H         4.10978922235445   -1.99367977512994    4.30324890925211
H         4.12521753303985   -2.75569521645773    2.70573928338480
H         3.14068048253281   -3.43242965682212    3.99779140281513
C         3.32106214209914    0.57800930529414    5.37853931617566
N         3.74502402780383    0.43082813424677    6.65530804901146
C         4.79757116344813    1.17173569659007    7.25725201099517
C         4.52770631991103    2.41084611484577    7.83869975960734
C         3.13250402012009    2.93542306899747    7.86776213761617
H         3.08810183720621    3.89314230143290    8.37756842276793
H         2.46968806459520    2.23537884670773    8.37570749588072
H         2.76167784392881    3.06195751849179    6.85089882865886
C         5.58347100385641    3.11765341127893    8.39311580787258
H         5.39198360950047    4.08300184727283    8.83866176363709
C         6.87755878427111    2.61517281539096    8.39225979893369
C         8.00029943282022    3.41933277088464    8.97359565422668
H         8.27231944848162    4.22413592947444    8.29071559710178
H         8.87899577152153    2.80153995534451    9.14046343714732
H         7.70193701289564    3.87125342446482    9.91730071425116
C         7.10744180906796    1.36318237342246    7.84206314659290
H         8.10641283955989    0.95127069764378    7.85343712861676
C         6.07948409446945    0.62427499106599    7.27477706678532
C         6.34065683310280   -0.74684238810493    6.72344029745981
H         6.02754603368055   -1.50580345570407    7.44147453606027
H         7.40088118897040   -0.88394849692173    6.52792538143445
H         5.78923726095130   -0.91133323357220    5.79989103385560
C         3.09673021254075   -0.61102116970575    7.26693791171291
H         3.28891982071514   -0.88145726108494    8.28485247161684
C         2.25165386315690   -1.13818281930166    6.35256391281406
H         1.56792845797515   -1.95941654132203    6.41844703606146

