66
CSD_code = CIVNUR | q = 0 | S = 0 | Stoichiometry = C26H33IrN2O3Si | MND = 4
Ir        1.00596060390097    4.14065595777092    5.82934517894627
O        -0.39842909440031    4.67139118156432    7.21300499421177
Si       -0.75108581209162    5.26272262197783    8.63914559790481
C        -2.46099266177337    6.13517539490747    8.58541686043728
H        -2.64659927859442    6.61227743586365    7.62718587780457
H        -2.51746529760805    6.90679508113195    9.34664685542196
H        -3.27560367859661    5.44218708620074    8.77121925318477
C        -0.82841626960927    3.88490755697290    9.96392634015498
H         0.15642381637252    3.46373112482079   10.14494114294904
H        -1.47332373223447    3.07077347278835    9.64721138861057
H        -1.20581060236752    4.26123864166158   10.90953846426971
C         0.50268137256151    6.57909224498718    9.24350490349076
H         0.70264844901655    7.31668965701422    8.47045383373969
H         1.45288012716100    6.12791582850227    9.51363605252067
H         0.13799354518738    7.11140263775003   10.11650250647997
C         2.19907052998543    3.72973575240258    4.48597627528822
O         2.94555476906772    3.49614822680464    3.63109375010205
C         2.38397187075169    4.63860029057769    7.00434073412045
O         3.22655853911167    4.90117583681537    7.73117021963264
N        -1.50097562739357    2.60057615232311    4.91301192622360
C        -1.48304837719566    1.70881798768007    6.01967174232475
C        -0.53755444738621    0.68676318893486    6.07439721503518
C         0.48399080548476    0.51671652855587    4.99159197960349
H         0.94307889818333   -0.46627578591951    5.05279374409119
H         1.26578268752317    1.27248602819182    5.10225724590974
H         0.03760952403415    0.63500126517438    4.00539306506529
C        -0.55773022878011   -0.17075014573790    7.16490189446405
H         0.17650483886601   -0.96121504149596    7.22194023384218
C        -1.49336082763995   -0.03491018586989    8.17862569009112
C        -1.48489181221997   -0.94898149534543    9.36477436755260
H        -2.49849770932094   -1.22405333467100    9.64915148172366
H        -1.02568043667301   -0.44297089626700   10.21403863707424
H        -0.91688554524798   -1.85258058760647    9.15876125166465
C        -2.43150989128440    0.98463652638952    8.08797695840028
H        -3.16634920799652    1.09804325110736    8.87224740384031
C        -2.44209309445091    1.86794716281771    7.02136779712099
C        -3.42546468012704    2.99347641259077    6.95964042074017
H        -2.88513594707455    3.93509782349678    6.88025625458411
H        -4.03092042420698    3.01792707068576    7.86133590011497
H        -4.09061332511531    2.90080638931200    6.10142583010776
C        -0.60611920962532    3.57789228736847    4.68089410020819
N        -1.03812052002176    4.19618617039467    3.56479842270433
C        -0.36454454512695    5.28784561065939    2.95173849712004
C         0.40282368010241    5.05351754968850    1.81072655405532
C         0.51151770801877    3.67473940986191    1.23294960811487
H         0.77608263518043    2.95533441894113    2.00598255382714
H         1.27419946301049    3.64773394740256    0.46023130824267
H        -0.43567573921204    3.36410023934417    0.79147028874098
C         1.05937968117072    6.12583043061663    1.22864048933951
H         1.66210220235507    5.95845277238197    0.34809982477703
C         0.96476913854593    7.40586811028454    1.75710565841441
C         1.71064340858164    8.54350200795873    1.13106850482505
H         1.81901146026668    8.39562948985167    0.05928582432637
H         2.70869248720700    8.60969540205188    1.56452941042566
H         1.20273513095819    9.48796035177362    1.30994738125645
C         0.18478206050183    7.60845484572187    2.88638438301413
H         0.10054865532069    8.60260409061056    3.30034915188687
C        -0.49125838599177    6.56484947117925    3.50045789791690
C        -1.34226007462644    6.79483600095291    4.70873648262367
H        -1.39584135850194    7.85410987736779    4.94382193226558
H        -0.92899410203530    6.27157638259449    5.57315544025179
H        -2.35324609721075    6.42014686127565    4.54680217060515
C        -2.18523827039901    3.61404437693279    3.09982569142415
H        -2.69140304466388    3.96318378199678    2.22335661555038
C        -2.47903165816198    2.60599515953236    3.95453653800874
H        -3.27872707344597    1.89403660841511    3.94938400123232

