36
CSD_code = CIVPED | q = 0 | S = 0 | Stoichiometry = C15H17Cl2NTi | MND = 8
Ti        5.06102864350594   10.10978071792788    1.28971696834365
Cl        6.00815750299451   10.85120558030870   -0.51843427219952
Cl        3.20440642416358    9.36688970292552    0.45113463708147
N         6.02387755885339    8.55923794957118    1.56782614815346
C         5.70446623482705   10.37197701132387    3.40714102640085
C         4.28220502248718   10.40808746274385    3.38345239843981
C         3.90244349899258   11.56121662930268    2.65231577789986
H         2.88707223560549   11.92434316146448    2.53415873007419
C         5.07434972995708   12.22999403965990    2.21400767847667
C         6.19648064000067   11.48910477554109    2.67229383347649
C         3.36737801478799    9.43352200535072    4.06150066856251
H         3.87776161024056    8.48127523084231    4.21539827801217
H         2.47337269556120    9.26560563969770    3.45876969783596
H         3.05679258831331    9.81646509781936    5.03660430608479
C         5.12733232653276   13.54170972792518    1.49103805044745
H         4.14116115981084   13.81321584680983    1.11606946546144
H         5.82182951500705   13.49549397447974    0.65042519963561
H         5.46964729674033   14.32819194174093    2.16734295529848
C         7.63979563232304   11.84948747845838    2.48440912791503
H         8.27659738235824   11.01919303105242    2.79033364065699
H         7.89587676959509   12.72366097767885    3.08707417889494
H         7.84460501887738   12.08580723077245    1.43839332990923
C         6.51085389758842    9.19772965271953    3.79731569181986
C         6.65026814654079    8.24861589414781    2.75413768115562
C         7.39948417967071    7.09356156721025    3.01009794605112
H         7.53712533475317    6.34330454309552    2.24706551216482
C         7.97630365091299    6.90367265604211    4.25413074504820
H         8.55111913983886    6.00691540528968    4.43383224682511
C         7.83018226542729    7.83783943803323    5.26501008145878
H         8.28666757085458    7.67284744283818    6.22853356334556
C         7.09261258832237    8.99085890195022    5.03126848149534
H         6.96918344730805    9.73172275168653    5.80794136898433
C         6.14186166431875    7.60866880432873    0.47872253788608
H         5.58228862326676    7.97761987940279   -0.38935193509202
H         5.73008320362279    6.63117965186049    0.76636142574839
H         7.19342878604019    7.47989819799818    0.18516282824790

