104
CSD_code = CIVPUU | q = 0 | S = 0 | Stoichiometry = C45H43BF8N4O2Pd | MND = 4
Pd        0.47310207882312    3.57990033560759    5.56840997237218
F         0.35960201968401    7.99848935698542    7.50316024931833
F        -1.75962134719300    8.04334136876678    7.86174934420506
F        -1.01218759336630    8.14580095683427    5.84811571906820
F        -2.97642600557080    3.62334250648730    9.58180540733945
F        -2.97593647812783    1.94034543902252    8.24138985949178
F        -4.21275222233829    3.65342976621796    7.82090987475154
F         4.12137272946188   -0.43540071913135    1.58853771346168
F         2.16834888106943   -0.07825986157948    0.53814314484071
O         0.07486733223899    5.58690312347906    6.16223191448714
O        -1.12375675263492    3.14078421915906    6.85923705162172
N         2.88940551446740    1.54692418094270    2.14057091240253
N         1.81621354436756    4.18037515094128    4.24446829594237
N         0.81850918908610    1.62525368539457    5.16605259019932
N         2.09279583961151   -0.75002947412704    2.85577793604782
C        -0.81973111733958    7.56425371981543    7.04048812846491
C        -0.82623046244185    6.02656387396497    6.90229836509507
C        -1.81036636178588    5.31391988622901    7.58412254454325
H        -2.53610762080875    5.82981179563984    8.18830391785765
C        -1.86267869305578    3.92162941461663    7.48724976731157
C        -3.01469154687046    3.27092576782154    8.28716190843174
C         2.19519545130991    2.05095917361137    3.18917853147181
C         2.39715443646343    3.47116923803112    3.31547864500866
C         3.31786184445506    3.79969907348120    2.25388142641695
C         3.57641352191091    2.58829122369041    1.56020512647672
C         4.42377631072070    2.55850685861129    0.46422015376129
H         4.60772263060539    1.63094175988124   -0.05177402710267
C         5.01495431369288    3.74598394759353    0.07421372112466
H         5.67993568318761    3.75079371469744   -0.77626103518795
C         4.77645593880310    4.93897766403361    0.75546352791564
H         5.26200325688936    5.84412580762810    0.42414220527312
C         3.93030150365686    4.98131830646975    1.84591755498742
H         3.74920491157865    5.90589176326023    2.37217766015259
C         1.47656132505730    1.25344280698818    4.04612940884733
C         1.48385261786121   -0.18122104882973    3.86903995667085
C         0.77710471411604   -0.68533816238832    5.00426171350224
C         0.40866787340190    0.45842403499921    5.77592744355325
C        -0.22115300808210    0.28648891624201    7.00332951624480
H        -0.45984541024861    1.13577269191998    7.62245663016764
C        -0.53011828590562   -0.99485754013168    7.41525674229188
H        -1.03007616525570   -1.13531209108154    8.36167846044317
C        -0.20928522888184   -2.11099749136527    6.64215920674683
H        -0.47071540027454   -3.09614867660301    6.99642992990404
C         0.45377307794052   -1.96952903228817    5.44144605561830
H         0.72417245609505   -2.83252024501969    4.85309373014237
C         1.97052319322711    5.57583418887567    4.30649334232498
C         1.28224334517401    6.39184860414029    3.39206253312540
C         1.42537903464763    7.76530286978974    3.51827138509484
H         0.90166255996514    8.42624287594845    2.84831118390930
C         2.22696165543642    8.30963021142196    4.50596007046771
H         2.32957339375790    9.38153696910965    4.57935117091854
C         2.87178964617551    7.49524050180596    5.41837063523660
H         3.46434418873058    7.94370354691355    6.19825381918896
C         2.73581301019070    6.11699882671909    5.35167531821823
C         0.37876470739970    5.76171749750949    2.35051281137883
H         0.88527391190604    4.88269065484728    1.93721191875211
C        -0.93453278739433    5.29727024697650    3.00199821867510
H        -0.76930800970595    4.46244445937542    3.71419075255364
H        -1.62052998614491    4.94585961574185    2.23391221713288
H        -1.39956311127722    6.12894393228694    3.52957162861020
C         0.06763932477357    6.69502393703905    1.18106065563098
H        -0.44383911172078    6.13826253462114    0.39923948324937
H         0.98330338131486    7.10496651399130    0.76189629362501
H        -0.58035477066433    7.51100932319684    1.49059543162271
C         3.37184600110213    5.18628017913075    6.36339235923410
H         2.68569916701863    4.31736101806928    6.51713151299562
C         3.58055805115793    5.84666630330316    7.72579547634396
H         2.67171750750760    6.34695794633431    8.05182903717840
H         4.38831322267993    6.57360069420624    7.69019330874104
H         3.84429239541880    5.09152901695203    8.46292182875794
C         4.70316261341370    4.65589370391513    5.81987455383024
H         4.56025548969780    4.11523096976743    4.88724668211464
H         5.16320822152425    3.98391568099055    6.54060188400439
H         5.38453395888902    5.48412065088997    5.63497824212540
C         2.11047824690005   -2.17093906785934    2.75726329774903
C         1.08897630499531   -2.81928938624628    2.05796458180668
C         1.13827837609800   -4.20370633437982    1.96177259184837
H         0.36000625169416   -4.72694151473449    1.42818386237133
C         2.16464997989939   -4.92214767141067    2.54297937561289
H         2.18727411835968   -5.99845679027199    2.45675128592410
C         3.15715303644955   -4.26380587420141    3.24251995855025
H         3.94761605034200   -4.83421830194150    3.70501770393306
C         3.15045821033665   -2.88079757639567    3.36429877689280
C        -0.06638069204694   -2.05955154254363    1.44985721119849
H         0.09646234207341   -0.98878070228536    1.59395341592880
C        -1.37653298449788   -2.43926248496839    2.14584990247679
H        -1.31937484366041   -2.23211927364645    3.21305822680667
H        -1.59624830973539   -3.49568119340882    2.01169120141146
H        -2.19896147348174   -1.86309975704390    1.72795927886334
C        -0.14842305276991   -2.31126484249600   -0.05636869907894
H         0.77939513029184   -2.00170229448489   -0.52885586543142
H        -0.96282020042733   -1.73112904393799   -0.48408891334819
H        -0.32224249107476   -3.36179532759055   -0.27468994689439
C         4.22418116699663   -2.18698277957757    4.16954406696073
H         4.08175545929587   -1.10553276502597    4.09487917012794
C         4.11600551859341   -2.58131652852473    5.64547644630257
H         3.13464002855782   -2.32609739547065    6.04157199942188
H         4.86947130860852   -2.05480012216516    6.22705499985394
H         4.27045715355224   -3.65003734583526    5.77256766972442
C         5.61357493047604   -2.50535625935765    3.61544887496715
H         5.66947484879472   -2.20088176009904    2.57435150103096
H         5.83405072040612   -3.56736890009952    3.68429295695483
H         6.36934976573717   -1.96054564615199    4.17682286797947
B         2.84859559955543    0.06375782343150    1.72843154870320

