71
CSD_code = CIVQAA | q = 0 | S = 0 | Stoichiometry = C32H32BNO2P2W | MND = 8
W         4.78104093007514    8.81668376196666   10.45177644083108
P         2.86119356600293    7.91419839553866   11.73544026488471
P         3.92016909041944   10.86798555432028   11.49527350747037
O         2.74862583317657    8.32929453727305    8.13329284606868
O         5.80158478176485    6.11282034434202    9.30602552247107
N         5.53607733834940    8.48152959321069   12.33559135710164
B         6.28137856797883    8.45437527836068   14.92817609842284
H         5.32855475739261    8.97610302691755   15.46350394497948
H         6.42433309022463    7.31873197695638   15.27777111075940
H         7.27723024059064    9.10348871704810   15.06956281833024
C         3.65219727662145    8.74032463251562    8.79657035456275
C         5.42448182257418    7.08269654184053    9.79681227703934
C         4.73162994440088    9.80379427701573    8.20321981084001
H         5.13355003801883    9.27930934455964    7.32574012686625
H         4.13530714406583   10.66176964813474    7.87270278880979
C         5.82757210371909   10.22551372572140    9.13623355898132
H         5.94457053171410   11.28109845303646    9.37981916787728
C         6.83025966463428    9.29376557088450    9.40119912201865
H         7.66791826945503    9.60142489324053   10.02167962873660
H         7.07824529735726    8.53525655375094    8.66465125915772
C         5.91361554653813    8.43610091250353   13.43497175226693
C         1.95551775990567    9.31187052389117   12.53599172759692
H         1.29855344622516    9.74644724402694   11.77240551651206
H         1.33551941872669    8.95914416523613   13.36473325275639
C         2.97631037613493   10.34697232474672   12.99845414775170
H         3.67278033222946    9.89361519161693   13.71116121418946
H         2.49298445344003   11.21400760347047   13.46386603259323
C         3.27590939414955    6.77304651407187   13.09646113414408
C         4.00089946216168    5.64363748591670   12.72103614757530
H         4.26003791522894    5.50846693955587   11.67882234913411
C         4.40198992143228    4.72307554993560   13.66784501170157
H         4.96945796992351    3.85431513764109   13.36893278017732
C         4.08987765889335    4.92508440409011   15.00321050921674
H         4.41387826656794    4.21400641276074   15.74828019673701
C         3.37746287674323    6.04790543876729   15.38208580089480
H         3.14798485079444    6.21628673720565   16.42373350370707
C         2.96921071368486    6.97243201968257   14.43567731070583
H         2.42964219008216    7.84815413203150   14.76311446598710
C         1.54766472409846    6.97138006348025   10.89849116866833
C         1.94077853663574    6.09332069304214    9.89289781355396
H         2.98535621988900    6.03997153755831    9.61884667456848
C         1.00324598706067    5.31910024163406    9.23625708527208
H         1.31470127565052    4.64641144433888    8.45158400644763
C        -0.33579365862036    5.41613987331254    9.57765042756349
H        -1.07151630088795    4.81792561209709    9.06079105973339
C        -0.73192345756283    6.28437872236900   10.58085550841293
H        -1.77591494915920    6.36039540123727   10.84878713134188
C         0.20366550050844    7.05865414850247   11.24419327976140
H        -0.12077333701846    7.72796094217382   12.02693427689923
C         2.63716947634413   11.94648480947616   10.76879542522925
C         1.84901847444978   11.45118896230294    9.73604989089293
H         2.03489983417718   10.45755130159660    9.34901773566064
C         0.81987918090825   12.21562473336937    9.21346926325612
H         0.21480860124089   11.82175449522289    8.41042794026080
C         0.57034831727658   13.47896566269978    9.72149191463784
H        -0.22740209235409   14.07966390711491    9.31073303819532
C         1.34091161130245   13.97089352354282   10.76394536214085
H         1.13942748901799   14.95186484545378   11.16888391835239
C         2.36567036909177   13.20836084148755   11.29158806832741
H         2.96161187460096   13.59219983698373   12.10850083592657
C         5.14120477510365   12.06018741760044   12.11951784269463
C         5.50873389285119   13.13938755337296   11.31442790185952
H         4.98380655665610   13.31872689215225   10.38325064792952
C         6.52162776100467   13.99289415620773   11.70778144796735
H         6.79256422015839   14.83021322985669   11.08087776753060
C         7.18994187991223   13.77076786767035   12.90143588802315
H         7.98286185568623   14.43701413977819   13.20719571496311
C         6.84418945741137   12.68959954596477   13.69453821312857
H         7.36966376024679   12.50360377637976   14.61899716831370
C         5.83013266140981   11.83112929663963   13.30723230564149
H         5.59548666153186   10.97885096158388   13.92642841699405

