34
CSD_code = CIVRIL | q = 1 | S = 0 | Stoichiometry = C15H11ClN3O3Ru(1+) | MND = 6
Ru       10.92083635729358    8.29613550250473   10.17914134685702
Cl       13.13012709464023    7.69799423784340    9.68158433565161
O        12.12377727669607    9.31501738957266   12.74530958053811
O        11.26966794398025   11.00252139086211    8.95566914622530
O        10.96510426984256    6.14792134222611   10.88684530502639
N        10.13504113624105    7.45859576872528    8.47319988647970
N         8.93837147825246    8.42093626888156   10.54015867175376
N         9.37930003677733    9.40686296235919   12.54045332991232
C        11.53604113356924    8.96821892256225   11.84056166339576
C        11.09280336187024    9.98613602789887    9.42876856553720
C        10.84030229010650    6.97841024389483    7.45796988493983
C        10.24985896795081    6.37665802902318    6.35618575056968
C         8.86837850350462    6.27549936575291    6.31257088018421
C         8.12787090841018    6.77258770660100    7.37321307424497
C         8.78757904495707    7.36220478997223    8.44896512559520
C         8.11284785347565    7.91872729057192    9.62644919888948
C         6.71547879900825    7.94962421113305    9.81870925383348
C         6.19449834144794    8.50685264706073   10.95673001040025
C         7.06425940687611    9.03299432909599   11.93533694153194
C         6.66989470637605    9.62764106023671   13.15328578671976
C         7.63257212563692   10.08954298935013   14.01369295377316
C         8.98844055272180    9.95086921949937   13.66286716806596
C         8.45730798044644    8.95786021587175   11.67650102669173
H        11.85348507236494    5.96102932516377   10.50570464088287
H        11.01788527897505    5.93279859627505   11.82746362411477
H        11.91712364131215    7.07723608189351    7.53586567922225
H        10.86469889341932    6.00009428523341    5.55533484158153
H         8.37329908268224    5.81807692421439    5.47045353758780
H         7.05302240261925    6.70059795340877    7.36172254210084
H         6.05991832267365    7.54034062833331    9.06857400132634
H         5.12797435911073    8.54804441048285   11.11636282194046
H         5.61906840542566    9.70730464952707   13.38770901972694
H         7.36849080231576   10.55048560535621   14.95145888219345
H         9.77317416902090   10.29337962860119   14.32368152250127

