43
CSD_code = CIVRAC | q = 0 | S = 0 | Stoichiometry = C14H16N6NiO4S2 | MND = 6
Ni        8.57472857475753    5.29398333644607    8.31270525057594
S         5.96719665472749    8.87023780996359    8.42067883320169
O         5.00768443962161    1.90020308567708    4.25411085060351
O         9.91774457519448    7.09286404865374    7.13820971783667
H         9.91275473207879    6.82878500521523    6.21380994093265
H         9.24987731528067    7.78284457564345    7.22358237515843
N         7.17876024416496    6.44223964026713    7.91141298188955
N         8.27172434940400    4.34004653554259    6.65805789946589
N         4.68426633080828    2.18652584258202    6.46610438516400
H         3.76634727180876    1.77680526718318    6.41120272555557
H         5.04378038224340    2.45148808880813    7.36562520664869
C         6.68325539230762    7.48497555903222    8.16022222423736
C         7.05805080645005    3.81806361749592    6.49152644480338
H         6.29421005217418    4.17219521255794    7.17124089249950
C         6.76929029835459    2.89333638505940    5.49628401695208
C         5.40814990592947    2.28347189387871    5.33045346939592
C         7.77644194125495    2.54353326868497    4.60168110585836
H         7.56044472285061    1.84104257131776    3.81103633001180
C         9.02716520506584    3.11286122859781    4.75843427330274
H         9.83785226474088    2.87109994920869    4.09001501551124
C         9.23699733319500    3.99317273472788    5.80671717405968
H        10.21700974734365    4.42031256575058    5.97344260837254
S        11.06089015874426    1.64132899908294    8.35782696152307
O        12.06146924637170    8.80485945791444   12.33282413380435
O         7.23558234418237    3.47455776685904    9.45656222517803
H         7.29780362683143    3.68762655485513   10.39214918437222
H         7.86206139709730    2.75757823126410    9.30602040550932
N         9.97915779425541    4.15744073744680    8.71041299008031
N         8.86724917369274    6.24140369419628    9.96474582520675
N        12.34895372094262    8.56180031401304   10.11052692593107
H        13.24628024193176    9.01642221749215   10.15029421610560
H        11.98135096749666    8.29157747983477    9.21580515393934
C        10.41843445951848    3.07590825612078    8.53318221052726
C        10.05947883824926    6.81408000129833   10.11674052451606
H        10.82709497277949    6.49896719457308    9.42214885108491
C        10.32226939987348    7.74416935783583   11.11421111727746
C        11.65609809151058    8.41605029265778   11.26037306224928
C         9.31512757303951    8.04200921687431   12.02740776996627
H         9.51184346572852    8.74826384214173   12.81973252293987
C         8.08862701588727    7.41852658440366   11.88598870372838
H         7.27877419205549    7.61911756834959   12.56888840920272
C         7.90091225198572    6.53859476422698   10.83333099339786
H         6.93790852804602    6.07062924626737   10.67737409140508

