49
CSD_code = CIVVOV | q = 0 | S = 0 | Stoichiometry = C18H23Cl2N5Zn | MND = 4
Zn       -6.64989524421521    5.01603588922208    8.37730815897231
Cl       -7.84010771659270    4.25603322370054   10.12230239906811
Cl       -7.19395097913470    6.33077960367801    6.73852702889548
N        -4.92072116554457    5.84327356408533    9.24795217265702
N        -4.22590885262255    5.39671076682917   10.29418787743309
C        -4.36612820358480    6.98528296289058    8.87072712337341
H        -4.76276645955786    7.52878245580149    8.03597033560179
C        -3.28449224424443    7.28721448785766    9.69649739025695
H        -2.64176464073406    8.14086617682707    9.64478077177964
C        -3.22849281368083    6.24198935676964   10.59316673783346
H        -2.55916932070319    6.05600364452360   11.40941737016975
C        -4.56275061740485    4.14894940355465   10.96316065088599
H        -4.01594329034594    4.15907466154835   11.91232899694804
H        -5.64393966619529    4.16062186363083   11.14641019439586
C        -5.23305395419089    2.18029178811349    9.59922400465732
H        -6.22017664299267    2.50403882613926    9.94954668751858
H        -5.07037586446639    1.12239983807030    9.84058278843287
N        -5.23721880329492    2.26946465185788    8.14894375762438
N        -5.75976662019297    3.31849212488070    7.51458569789138
C        -4.69831390794058    1.40836889814577    7.27307920683126
H        -4.22387597894593    0.50301654065713    7.59466909064808
C        -4.89134807368100    1.92456534435473    6.01007379161426
H        -4.59615210187305    1.49575348455977    5.07536106781317
C        -5.56287658783018    3.12884451356496    6.21923660878227
H        -5.90713494379820    3.85404093034096    5.50859113570519
N        -4.21983313608085    3.00172447323204   10.18589208548999
C        -2.91859777285051    2.42739130226671   10.32112111439445
C        -1.95297092484927    2.66076094844561    9.33805011588932
C        -2.20508622458715    3.57644795519291    8.17098180731307
H        -2.12011369462714    3.00491988832177    7.24232154227409
H        -3.21582113470956    3.97983137098753    8.22149467309744
C        -1.21133656406542    4.73758119570511    8.12921498347213
H        -1.47149922593722    5.41738874750327    7.32164226599085
H        -0.19723204634243    4.38275384498250    7.96616051789338
H        -1.23324196811312    5.29168842100710    9.06463705272488
C        -0.72115995071245    2.02639899054067    9.44789090728028
H         0.02286104192020    2.18176168243742    8.68122187448208
C        -0.44321031426473    1.19191356374183   10.51264505253627
H         0.51660764707445    0.70206354853301   10.57982383645695
C        -1.39799160691254    0.98224677030328   11.48904401725301
H        -1.18374203291579    0.32531191942398   12.31921000838667
C        -2.64356375177536    1.59077816858529   11.40864297412864
C        -3.64892102034285    1.33250843627544   12.49955198769949
H        -4.63026417634971    1.71691132326446   12.22203384155476
H        -3.73959371439598    0.25340689004802   12.64743251234662
C        -3.21521898036300    1.96963781803877   13.82177898359025
H        -2.26500009144971    1.56007272414129   14.15478048205909
H        -3.96119176056663    1.78065290283176   14.58946769594569
H        -3.09905390301726    3.04615211257841   13.71482862195280

