47
CSD_code = CIVYUC | q = 0 | S = 0 | Stoichiometry = C13H20BN8O3PRu | MND = 6
Ru        8.43997614452858    2.67195060825155    8.24718882503270
P         9.97139869410631    3.89939240648267    7.01650365277106
O         9.91385072173025    1.21630277518630    8.55257893328963
O        11.51693595249967    0.75975629989064    9.95141858860713
O         8.81687687337431    4.30774662559463   10.46117065791066
N         7.07116807391803    1.54166194833424    9.25421769984610
N         5.80915145512242    1.46852377265336    8.83192744249383
N         7.59180282122302    1.80604409890210    6.53765309975127
N         6.26556089510822    1.70764980392490    6.43585777913288
N         6.95959737182198    4.07320727503874    8.11859758061058
N         5.71894710713881    3.70018520231398    7.79799045125434
N        10.57758280966162    1.47920123579360    9.61164241121823
N         9.19464337960380    3.29739232657996    9.84234438428844
B         5.36753907864176    2.22584905332983    7.56912305990232
C         7.18948318865385    0.77323182456770   10.32750328162972
C         5.95956975840453    0.18061913288681   10.61312695386074
C         5.11133495222537    0.65174409956483    9.63435043334208
C         8.12386553921501    1.18460947615685    5.49643737823018
C         7.11170862961227    0.67061573597180    4.68633317057412
C         5.94380057163696    1.02591347523741    5.32726756996141
C         6.95291497942122    5.38038169431117    8.32548446788242
C         5.66460277761572    5.87793549951218    8.13045688122099
C         4.91258768032646    4.77290943988245    7.79692007543647
C        10.21720155722619    2.56873746713556   10.31529408672002
C        11.47060809420260    3.00416606307720    6.45597097876275
C        10.76771969166686    5.35439356730917    7.80011585194110
C         9.35770398415255    4.63066065649753    5.45187397821256
H         4.22136499169792    2.07121942130477    7.33501665346953
H         8.11959064704400    0.66680077871457   10.85620394471712
H         5.73068470343083   -0.48996134996321   11.41496199760991
H         4.07200429679086    0.45960658403785    9.46274385884911
H         9.18763620626848    1.11651934646643    5.37297715823811
H         7.21934416007675    0.12057706362902    3.77455106189143
H         4.92241495705148    0.83688651511390    5.06709123013823
H         7.83801188069867    5.89929737162177    8.63676345684806
H         5.33554645882495    6.89190192563706    8.22402884169838
H         3.87074664659654    4.68439046227566    7.56539774415399
H        10.74397246861660    2.80724921263056   11.22876505211935
H        11.18634427203160    2.10715696536170    5.91129364267811
H        12.05477438863381    2.70101965997086    7.32465318125387
H        12.07708160848235    3.64631977312100    5.81776023321753
H        11.29648955225551    5.03898609274885    8.69888578194295
H        10.01450654823121    6.08461462785952    8.08522101277557
H        11.47301864695991    5.81057834787391    7.10588962838988
H         8.53185261740362    5.30326550543886    5.67956625801836
H         8.99236826395316    3.83668523789508    4.80297501325191
H        10.15071390211376    5.18140489387421    4.94750457485533

