51
CSD_code = CIVYIQ | q = 0 | S = 0 | Stoichiometry = C16H24BN8PRu | MND = 6
Ru        3.00516453651162    3.29338875797443    4.55453584405318
P         4.63534340968569    1.67558396699040    4.30302717250111
N         3.74623464826633    4.42879314896602    3.02748933948777
N         2.89524146022837    4.94435862392178    2.13676731271971
N         1.54632970772110    4.70504275290251    4.73654896724562
N         0.96559813486331    5.20882163113068    3.64810491325573
N         1.71815326776129    2.41660495809246    3.12180949194578
N         1.13548136108621    3.21201355529795    2.22688085322019
N         2.20059950093338    2.33228577319806    5.95582548064535
N         4.68525721606266    2.70182767106582    7.88038544318823
C         4.97001360950665    4.78148314471868    2.65508120150556
H         5.83563850030285    4.49029011397696    3.21914229388354
C         4.91260130108831    5.54761064906948    1.49080407682225
H         5.73028586608191    5.97819921019413    0.95026086683288
C         3.56966903770615    5.62520582638186    1.19662198018938
H         3.06004936323409    6.11498905096957    0.39201971073045
C         0.95107219380810    5.23465460028810    5.79610567936349
H         1.24599180843428    4.97226588985239    6.79579898959060
C        -0.04677956847094    6.11785027174983    5.37995437781151
H        -0.69942243305371    6.70288212375300    5.99482281240211
C        -0.00229769720460    6.06851978039732    4.00386584807385
H        -0.58654766220809    6.58324619985488    3.26839290451676
C         1.27814670146244    1.18548179014034    2.91270343123880
H         1.60511846851925    0.36514932950373    3.52454197041948
C         0.38302371271879    1.17833202762392    1.84161400160341
H        -0.13877971540614    0.33877953201759    1.43000052943483
C         0.32228664952046    2.49399210103297    1.43620072985566
H        -0.23825396848218    2.95552680037590    0.64887376539762
C         1.75425444096423    1.82982394996110    6.89496302464070
C         1.27652889548703    1.19712987890187    8.09445921812403
H         1.09518805514850    0.13660611899375    7.91740374062108
H         0.35148576661548    1.66756899211832    8.42773026125490
H         2.03696355439457    1.30769416460398    8.86866456317085
C         4.20981876503602    4.35840301031333    5.98000943397109
H         5.16316168959001    4.70124848377660    5.55840045345007
H         3.68486971247258    5.23536748171913    6.38176776663497
C         4.47762521941595    3.45920794284650    7.03305922315913
C         4.86921265383550    1.02178205380671    2.59771356214407
H         5.61850876586121    0.23105232421207    2.58388144639733
H         5.18839887633240    1.83682959180717    1.94899605637022
H         3.92247228251055    0.63450567538860    2.22601704365230
C         6.39368552453137    1.94790055367222    4.76743945223854
H         6.96401071295752    1.03440838038587    4.59970697664692
H         6.43405022258108    2.21365947968389    5.82200529788731
H         6.82895014797094    2.75215197612528    4.17903114229060
C         4.36727111869487    0.12526337575660    5.24814690283461
H         3.37895352991987   -0.27765015195097    5.03687610651102
H         4.42599391410497    0.37812377494165    6.30647520247793
H         5.12756254914384   -0.61502697567273    5.00092876830770
B         1.38300673455718    4.72764526707769    2.25326705971805
H         0.78970745720038    5.28462537009124    1.39557730956061

