38
CSD_code = CIVZOY | q = 0 | S = 0 | Stoichiometry = C14H15MoN3O4S | MND = 6
Mo        3.41453204014398    5.72318552941165    6.83077833369208
S         2.00056781393801    7.42986864220235    7.79898751043040
O         4.05593115759890    5.04462962391264    5.23451541934340
O         3.00938598586803    4.49058171049479    7.83776676973967
O         4.68702800737267    6.66682500323569    7.27368637045778
O         3.56720749699487    7.80378132940683    5.03021895820132
N         1.56583989788760    5.47782019879971    5.69965850117841
N         0.41824851058190    6.05606808686795    6.11675991488337
N        -0.65364638740366    7.50144944869091    7.48928472575402
C         3.73327472439335    4.05234151539830    4.43833146710601
C         4.76341421755077    3.31792767275494    3.80393588860914
H         5.78469572989372    3.59183678317960    4.02985453181331
C         4.45790783562578    2.29806382896068    2.95642519094047
H         5.24396824719002    1.73314252993513    2.47673321844121
C         3.11344811730177    1.94747367435453    2.68623095161621
C         2.81758836917326    0.88209330109883    1.81426035850166
H         3.63809957789017    0.34989860831259    1.35530849588625
C         1.52352768730011    0.52223756438292    1.55521019733072
H         1.30322688162570   -0.29651524591853    0.88718132717539
C         0.47934996388544    1.22108672511833    2.16877734301727
H        -0.54219603744110    0.93204142956860    1.97117315119187
C         0.73871781511754    2.26492245059034    3.01934633261069
H        -0.09409669853647    2.77155092086091    3.47923129401373
C         2.05683727046602    2.66884819446646    3.30348126374204
C         2.38109188203865    3.75187723094780    4.19202386786934
C         1.37473563009554    4.54672428674085    4.80669944125264
H         0.33558703681573    4.38530392589935    4.53022933393383
C         0.48688495786384    6.92556490154155    7.07569396769410
C        -0.76121540744343    8.29570012995235    8.69022114076097
H        -1.66389951360123    8.90410864893505    8.60442109750323
H         0.11174304282730    8.94949095388821    8.73233557646522
C        -0.81493328230298    7.42963244700664    9.94641726292988
H        -0.88867917897477    8.05876072836164   10.82822506414709
H         0.09128785073687    6.83348418072597   10.01792128762401
H        -1.67399430659678    6.76332987510570    9.91841582856708
H        -1.49778151047287    7.08225604656325    7.12590519049507
H         4.07961712096277    8.20927663131484    5.74471977644712
H         4.20929745362683    7.53303048691969    4.36473364868109

