43
CSD_code = CIVZUE | q = 0 | S = 0 | Stoichiometry = C14H19MoN3O5S | MND = 6
Mo       -2.86648810853679    3.89959014609656    2.46170601788253
S        -2.97753866925811    6.31786619817944    2.77091584953629
O        -1.92792853380483    2.52848038909480    1.72054442028760
O        -1.74663489765109    4.90989503474795    0.23364850771668
H        -2.68840222330174    5.02729957237650    0.02696816098392
O        -4.09418645567219    4.09174285335443    1.38094912246827
O        -3.27381095337084    3.50231789159723    4.00254593661246
O        -1.98293646241701    0.06474842908779    0.76685689133115
N        -0.79725263459658    4.41281616078929    3.11401005497362
N        -0.53970229895522    5.60966507422452    3.68137030163108
N        -1.25386647094117    7.72409194754406    4.17152591043782
H        -2.02619176818871    8.37041053559897    4.12608218041350
C        -0.92013311429054    1.73462859337916    2.00500158993447
C        -0.90065381657880    0.40450730123143    1.51645284392568
C         0.16616320736837   -0.41907655681034    1.82544941687870
H         0.18614901245719   -1.43780832283599    1.47026540423096
C         1.23771455529917    0.04578653781928    2.59495551546366
C         1.22997935322536    1.34245757213928    3.05880884839759
H         2.05401489634040    1.70483803325108    3.65479846961172
C         0.15554476838717    2.20390869826604    2.78190812037340
C         0.15674599506732    3.54605758545508    3.26900329669517
H         1.03253705796012    3.87420568354133    3.82986065520840
C        -1.45599928180417    6.52323796516001    3.61559654577283
C        -1.19705501829060    4.04044026736961   -0.74287445775905
H        -1.22616553166446    4.51444126973825   -1.72916517338592
H        -1.73446116329154    3.08815220313941   -0.77835101838659
H        -0.15856878483577    3.85949156254667   -0.46511463537237
C        -2.09709904534063   -1.26433063314013    0.31957518907368
H        -3.04562698894720   -1.31408828978249   -0.21200942595806
H        -2.11394317336921   -1.96882282865220    1.15693074308250
H        -1.28346434550297   -1.52875944246586   -0.36439501531992
C         2.39733340101852   -0.86326492500305    2.91458428019569
H         2.15081378679122   -1.88463781783289    2.61379275081806
H         3.27671160539117   -0.54681656459202    2.34731456296060
C         2.71403304700617   -0.84441171956159    4.37954560476568
H         1.89356362336480   -1.12157531160920    5.02770538640096
C         3.88496553294366   -0.50896215182707    4.88568794872915
H         4.71420004758798   -0.22579408055007    4.25759722779643
H         4.07032086421053   -0.50941775126456    5.94609770241429
C        -0.11276877070398    8.06331549428784    4.98198872306403
H         0.28817814183004    9.02772142521467    4.66981544384804
H         0.63997225584296    7.29226521456743    4.84586739246595
H        -0.38536264078116    8.11718675612493    6.03848270979953

