41
CSD_code = CIWDOC | q = 0 | S = 0 | Stoichiometry = C16H14O10Zn | MND = 4
Zn        0.00003730441343   -0.00016117075555    0.00074314646021
O         1.96423511742519    0.30764749547829   -0.30191068162082
O         0.81257267873977    1.37176088069109    1.20904871651224
O         0.66048716570461    3.73962339819122    0.15499296182875
O         2.12834356267292    4.97783501546238   -0.93004091682750
O        -0.42663663606578    1.61507990030047   -1.43871030703753
C         3.05787225102334    2.05591767744176    0.88876618013726
C         4.19051511699069    1.48367583853121    1.45240902301805
H         4.19561871150365    0.42293360216897    1.64949454013336
C         5.28986934401341    2.26620183314880    1.75826743271300
H         6.16066342919075    1.81425729660316    2.20816634991969
C         5.27672716384927    3.62242370569087    1.47307119174940
H         6.13684133131097    4.23308341917048    1.70121048943023
C         4.16678372618516    4.19064023093257    0.87813266744638
H         4.14990426433599    5.23847543378464    0.61981074280749
C         3.03747553241943    3.42410489231610    0.59636674679511
C         1.89172654020009    1.17709318771475    0.57837333910509
C         1.91926619363969    4.11350232426531   -0.12136580333492
H         0.05916069697315    1.54518204346470   -2.26750602157120
H         0.60110431327999    3.02221065702099    0.83206982147938
H        -0.31882816527747    2.52328011963883   -1.10979441308399
O        -1.96439783190124   -0.30796237626630    0.30285209607055
O        -0.81249743762572   -1.37153082625111   -1.20831433479993
O        -0.66074395549254   -3.73961665361185   -0.15446108938629
O        -2.12891636469071   -4.97812112706854    0.92983092030306
O         0.42647602161575   -1.61555671255127    1.44001091849408
C        -3.05778414120561   -2.05588158105355   -0.88861461757174
C        -4.19013317462773   -1.48338836613479   -1.45260713345648
H        -4.19510847511002   -0.42257631100669   -1.64933142483414
C        -5.28943353370167   -2.26574928953563   -1.75910720972621
H        -6.16003096417949   -1.81361262066138   -2.20919033722384
C        -5.27649189642047   -3.62205490093844   -1.47429372691566
H        -6.13653649401132   -4.23260196944764   -1.70300009460501
C        -4.16685584651398   -4.19051258354792   -0.87901922372960
H        -4.15010623410953   -5.23844578750954   -0.62108491684132
C        -3.03759571861805   -3.42415640705173   -0.59662922630256
C        -1.89160424313958   -1.17738486944608   -0.57742405554307
C        -1.91957920532410   -4.11401743012267    0.12096969676271
H        -0.05972381819589   -1.54586572178259    2.26853769270483
H        -0.60116938951643   -3.02214077770235   -0.83144480492659
H         0.31849306023528   -2.52359146956799    1.11072566547051

