33
CSD_code = CIWPOO | q = 0 | S = 0 | Stoichiometry = C10H12N6O2PdS2 | MND = 4
Pd        7.83538457750279    4.52408639511660    0.65437332152991
S         5.64450777915676    4.63454679959683   -0.19090424864070
O         4.60539825603971    0.42076463361741    1.16192783512546
N         3.93327520161694    2.61417818404410   -0.01161062176526
H         3.74653533158452    1.65157613242678    0.32063895686853
H         3.26532751521974    3.18990371160244   -0.49239794365337
N         5.99582225482347    2.27075463673965    0.91053052965925
N         7.27607664446521    2.64668035624903    1.24626568221713
C         5.14602899818314    3.07774828652379    0.25818213575227
C         7.79911757843972    1.59404590828585    1.89838765163407
C         6.89278830577576    0.55071359470764    1.99160850286525
H         7.06003161350134   -0.39599013703131    2.46038983038042
C         5.70334715260247    0.94112433114098    1.36419719112852
C         9.17983368944963    1.57934986534877    2.44405383788999
H         9.90738063185874    1.70921159740625    1.64323004651760
H         9.36400448203792    0.63214764338137    2.94227402363737
H         9.31584750776361    2.39181774232657    3.15743563463515
S        10.02677081700759    4.41345071080876    1.49949251935238
O        11.06610263643532    8.62717122489785    0.14663978330176
N        11.73817387810136    6.43372908486279    1.32019567504072
H        11.92493899027936    7.39633056053593    0.98793581178959
H        12.40610073635445    5.85799464353770    1.80099764051411
N         9.67562838407843    6.77722242197027    0.39809764163189
N         8.39534817992752    6.40131603637582    0.06243087188314
C        10.52539265096344    5.97021325714707    1.05043473349862
C         7.87232292318324    7.45396009607216   -0.58968903624849
C         8.77867147483865    8.49727150662861   -0.68294869303355
H         8.61143342239996    9.44397785786197   -1.15172687349347
C         9.96813055328848    8.10683788460349   -0.05558902488734
C         6.49156529834115    7.46871265214440   -1.13526258974633
H         5.76406825275375    7.33885917259529   -0.33439095744915
H         6.30738380806182    8.41593014408770   -1.63345257020417
H         6.35546047396404    6.65626306438743   -1.84864729773132

