60
CSD_code = CIWROR | q = 0 | S = 0 | Stoichiometry = C29H23MoO6P | MND = 6
Mo        3.66250649757425   11.19038603390835   17.56120241836294
P         4.24115565341329    9.07856184369191   18.59522836059976
C         5.69721173260343    7.94598151136249   16.56422769731750
H         4.72214929206547    7.87416563279320   16.09638582394849
O         3.90040384691981   10.05119315196013   14.68901536821155
O         6.71387667851843   11.71280574025467   17.32907427461058
C         0.77282738843138   11.49880675526894   15.67759041307863
H         1.32906260183081   10.73661475653520   15.11749723416500
H         1.36184631050566   12.42426218702504   15.68520724703230
C        -0.59299296599388   11.73264259175392   15.05174819069175
H        -0.47344345821972   12.07067484037411   14.02698699937256
H        -1.13576394873527   12.48865515435213   15.61298767054316
H        -1.17171025293860   10.81247338182839   15.05697872395421
O         0.57739355020329   11.05283819208629   17.00670483311712
O         1.95626898041136    9.89546173915004   19.99584431132493
O         3.47921523980536   12.58757198565074   20.32350250537124
O         3.42729455869550   13.98563225248535   16.26826720125394
C         6.82257119995935    7.52340546907271   15.88531115225614
H         6.73180482644213    7.13334682027096   14.88209631875622
C         5.59281079091392   11.50883865569843   17.42960108023300
C         4.67933087764279    9.11658950708962   20.36249667457563
C         1.61383026085312   10.85603812988496   17.80447830491706
C         3.75928460679858   10.40727181537484   15.76807430462149
C         8.06685094273923    7.60508085905536   16.49089993995986
H         8.94991189575865    7.28216584273348   15.95972704574134
C         4.20130509806951    8.22020321188264   21.31084714912259
H         3.53739506723940    7.41939029549293   21.01666952360738
C        -0.16867464998031   10.46291431070568   19.63085560143374
H        -1.04904767157418   10.83693997511648   19.14918084876084
C         5.79722773999844    8.45645779649373   17.85746880708751
C         1.10179028206850   10.42487015011050   19.08872582186511
C         3.29901422540187    7.52469596718717   18.41890703973155
C         7.04564169703545    8.52322987930562   18.46251832741088
H         7.14686687529904    8.90244005694903   19.46958561659198
C        -0.06032214622626    9.94549510797868   20.93429706088144
H        -0.84577688929813    9.83412886157234   21.65379177855473
C         1.25418293770860    9.61313699518533   21.09579575081151
H         1.78605981535937    9.18947185719354   21.92557220035886
C         3.17978667340916    5.13204583864461   18.64864993460806
H         3.62497231070166    4.19993404542936   18.96518531145868
C         4.55952870816443    8.35795474020783   22.64162962849198
H         4.18042019341532    7.65705915128564   23.37217036144051
C         1.92250720930958    5.13681320249969   18.06336163736846
H         1.38615561239355    4.20904761247912   17.92931559564292
C         5.50837436037307   10.15886810097651   20.77267316054359
H         5.86712688532279   10.87379674719158   20.04108718805583
C         5.86752092776161   10.29102059120336   22.10081649154011
H         6.51218275102520   11.10218145553869   22.40606094224962
C         8.17302026277751    8.09923169078343   17.77859541280762
H         9.13979998327156    8.15898392435714   18.25722059882763
C         5.39346350294423    9.38856205944282   23.03946338952925
H         5.66777580646006    9.49312999227853   24.07871603145291
C         2.05242119913099    7.51775781400499   17.80941605226696
H         1.62577756518532    8.44931046075880   17.45828101061779
C         1.36348764694413    6.32895894982392   17.63697245930337
H         0.39224703033593    6.33334040965081   17.16383693607842
C         3.56664250728127   12.04971647461180   19.32023734774143
C         3.43172165566902   12.93925952404514   16.73635816018525
C         3.86906154083461    6.31677322713773   18.82068657383078
H         4.85944618143262    6.31311467079942   19.25741615734620

