57
CSD_code = CIWREH | q = 0 | S = 0 | Stoichiometry = C27H21N2O5PW | MND = 6
C        19.75898308944222    4.58057000008826   17.77655702683358
C        19.12656409805021    3.58207568308891   16.81696826802154
H        19.80662686674018    2.76572297256042   16.59348243134294
C        18.72996555225606    4.30160380018099   15.55597303560845
C        17.65465857848534    5.27289859834940   15.74384897494182
H        17.21492783212880    5.69397852327343   14.84748258435491
C        16.70324869816825    5.06285132974854   16.91629276857812
H        15.69611293241775    5.44072716447458   16.77672100556495
C        16.83869862167689    3.84664955799589   17.69459024567448
H        16.00867065347152    3.54976805421673   18.31949167563601
C        17.95630450144804    3.12121497703046   17.63929360158217
H        18.07906452868537    2.22202288253353   18.22353175122548
C        21.33165296562411    5.06603930988068   19.54649576157508
H        21.33751562502868    4.54902318188446   20.50777499580767
H        20.69974947871692    5.94762912704208   19.61250069243724
H        22.34926381886499    5.37336264531062   19.29717235445851
C        21.49505864272301    2.93649696088859   18.33499910698018
H        21.88843655202608    2.84027128963048   17.31986304293892
H        20.84225498127030    2.08610737746867   18.54634933334561
H        22.33262286430693    2.90086761532778   19.02754230686012
C        19.42169688408619    4.16923157479904   14.40740359789910
C        19.21984936403292    5.06562491452157   13.25441308039284
C        19.08660183807645    4.54200600778101   11.97072524401103
H        19.09987367082645    3.47010335787745   11.83241898064305
C        18.92449368013223    5.38164541330756   10.88477142141422
H        18.81151156831204    4.96291166957813    9.89529433323685
C        18.90930962209437    6.75539585189249   11.06185330702898
H        18.78249566055337    7.41005357960003   10.21253321306970
C        19.06693225597231    7.28707269843465   12.33108148650212
H        19.07171537987278    8.35760185467310   12.47473464190008
C        19.22222414383806    6.44958429206477   13.41941757730435
H        19.36986913748053    6.86906011080526   14.40694247442879
C        20.45436788894833    3.13446800790013   14.20670047538607
C        21.73288221460712    3.50440850502218   13.79736249567677
H        21.95613377014620    4.55103831336128   13.64811991519250
C        22.70907287470532    2.54679080207393   13.59312340024869
H        23.69887441628542    2.84734662321676   13.28173314985628
C        22.41960007991108    1.20530982279127   13.78173612429175
H        23.18146365512116    0.45758095444891   13.61830638784711
C        21.14512201171571    0.82547749226781   14.16940962279399
H        20.90945164136297   -0.22061259110911   14.30230112420763
C        20.16832852387274    1.78153402622786   14.37995319087874
H        19.16793531090912    1.48303352419984   14.66190903577295
C        17.82455716508120   10.85530206964538   17.08688270862898
C        19.71688392644381    8.87361781324492   16.39297221802635
C        18.63736026548000    8.85130833317515   18.95731535927159
C        15.99938008624756    8.85144555245414   17.86766291443286
C        17.08715747053445    8.82181071028846   15.27083319942857
N        19.26707402375524    5.77206724205426   17.95918506405826
N        20.80503190414921    4.19401391878175   18.51941041651403
O        17.81479678531839   11.99863517466708   17.07238666770352
O        20.79171122493423    8.86879242404977   16.00790636114952
O        19.11223435212185    8.79876945641643   19.99292720844171
O        14.94131684408696    8.84272661234112   18.29670097046527
O        16.64285351303847    8.78067165002351   14.21920576211831
P        17.99460745959273    6.41793600246625   17.16193239703188
W        17.85344850481039    8.87545518368497   17.11670350894345

