119
CSD_code = CIWTAG | q = 1 | S = 0 | Stoichiometry = C58H52AuN4O4(1+) | MND = 2
Au        0.49131777313800    5.74915804564308    4.51433596124853
O         5.06164720195010    3.89351324563635    1.17945811643666
O         0.97377078718533    0.37245332925878    2.00040692349441
O         0.34566912833685   10.18024743375599    8.49025347147365
O        -4.41808446064554    8.55145064357269    6.38397041420238
N         2.63421257500003    4.53377420728643    2.80609229911421
N         1.01825628510161    3.14145485527933    3.13106827995450
N         0.09781166942349    7.98363662858103    6.47523315940846
N        -1.78566355420687    7.33835035532762    5.64358188431240
C         1.44305775645095    4.38577681255877    3.41199702125329
C         2.96572619940220    3.38787995236154    2.14062213086635
C         4.16174021856923    3.09795295084013    1.35029000176782
C         4.14503277242709    1.72724004824034    0.78297671292026
C         5.23226769489038    1.33633761074419    0.00730283204798
H         6.03258007599396    2.04631236874432   -0.14095800107585
C         5.28542775062537    0.07289672355764   -0.55816417359035
H         6.13657354128659   -0.21218011679878   -1.15687742395688
C         4.24576098560070   -0.81943579659665   -0.35324494286852
H         4.28055396485030   -1.80472011303978   -0.79158875208747
C         3.15693347162194   -0.44555376276131    0.41716473381826
H         2.33669458702393   -1.12691132620877    0.58894238033645
C         3.08878431549477    0.81987864372584    0.99210686777891
C         1.89046879067522    1.14278065647425    1.80496769186730
C         1.93640180726956    2.49939655424897    2.34957240536198
C         3.40947081545990    5.72613543083270    2.84979118901359
C         4.27484044505135    5.93601249611123    3.92015503290277
C         5.04094953193210    7.09082575137545    3.92367863778159
H         5.73283103957755    7.25259931535943    4.73556068432379
C         4.94746608845017    8.02588050497231    2.90374640847893
C         4.05724980015041    7.79539780700297    1.86228991422242
H         3.97729008609276    8.51853750386297    1.06416873897925
C         3.28415977883464    6.64815808940951    1.81148646937749
C         4.37400676268100    4.93577211654395    5.03038898496227
H         3.41774011826165    4.84467804910096    5.54778524264907
H         5.12402790240634    5.24444523195108    5.75191051185750
H         4.65014220860638    3.95454993312184    4.64441780156607
C         5.79644323489056    9.25786160083630    2.90212736137368
H         6.35005740180049    9.35672033028401    3.83181880194507
H         5.18626382278424   10.14741845620699    2.75457892669542
H         6.51241932025979    9.21261871225201    2.08257319073334
C         2.35223206699757    6.38668615229534    0.66800261503750
H         2.74691040475600    5.58808317180362    0.03915004451069
H         2.24350283293901    7.27587522892476    0.05389770772526
H         1.36641636698382    6.08413488482674    1.02244887072123
C        -0.20541488854190    2.58911960765985    3.60253405398341
C        -1.37565414163903    2.81579607285411    2.88299929633322
C        -2.54836607010810    2.24026335048760    3.34559550554615
H        -3.45684128137685    2.38843040781847    2.78281108283676
C        -2.57236583211950    1.47063086883994    4.49904923297733
C        -1.39056643113326    1.28389100549137    5.20521101333480
H        -1.40006708510591    0.68697959742755    6.10516739357711
C        -0.19398461961159    1.82741370594267    4.77023677215186
C        -1.36054311473573    3.65653412220541    1.64366388901134
H        -1.08334996664781    4.68396573490396    1.88493157916498
H        -2.34310253456300    3.66809051039521    1.18231848902871
H        -0.64426225840915    3.26883192061094    0.91945592630691
C        -3.83771312189423    0.83112843777549    4.97702481617553
H        -3.76742028795692   -0.25075809771436    4.87219300857230
H        -4.69413997549120    1.17277782351553    4.40219564932989
H        -4.00638723613533    1.04742914655349    6.03058757116613
C         1.08466453887548    1.59323059524767    5.51494826082820
H         1.72886864340010    0.91935644756639    4.94942475844987
H         0.88553351514213    1.13723920807892    6.48034098789329
H         1.62591781604710    2.52635694982640    5.67427848401305
C        -0.46045193536800    7.11259743680705    5.61651705867069
C        -0.86902712906078    8.76056065035411    7.04752316367994
C        -0.72230919752304    9.83291348682181    8.03118812157744
C        -2.02381472343251   10.44063424866668    8.40215984502846
C        -2.01117479926593   11.47540347235504    9.33254540248174
H        -1.05826031221321   11.78463107087281    9.73615728190038
C        -3.18736421465704   12.09084013726403    9.72836328948282
H        -3.15771071115650   12.89179787117267   10.45068226413170
C        -4.39686849587954   11.67580962894650    9.19542043382834
H        -5.31663756259080   12.15080579982283    9.49966087274929
C        -4.42600259461337   10.64694263831032    8.26834778244909
H        -5.35880411412216   10.30892341733529    7.84152216159724
C        -3.25315074687078   10.01882574566764    7.86039262409326
C        -3.36842087162053    8.92685008480507    6.86272604567907
C        -2.06969577993023    8.35067520525873    6.51561655223478
C         1.49290232024807    8.05780411426696    6.74535129217667
C         2.30526208596365    8.83016809529392    5.91944344590871
C         3.65504031042001    8.91169015807567    6.22261567959832
H         4.29008276714645    9.52670058452922    5.60413503264732
C         4.19668276314863    8.23675963420314    7.30633770700154
C         3.36111956519331    7.45723509225956    8.09652388607623
H         3.77431210671643    6.92790883883929    8.94234209474555
C         2.00447360601105    7.36015537732729    7.83870113108707
C         1.72984536448069    9.55342690946761    4.74098299533146
H         1.32729170952718    8.84265072427176    4.01758233099413
H         2.49604999133696   10.14406323018443    4.24852267630651
H         0.92568777354612   10.22103325711492    5.05022111365575
C         5.65029408548279    8.35096445193902    7.64191661173360
H         5.77196402418154    8.89325670156815    8.57864366360864
H         6.19332988589741    8.88545839053555    6.86731621372808
H         6.09523679956991    7.36615723489965    7.77401178838922
C         1.10083505906431    6.54829353890700    8.71543272501197
H         0.46355339928732    7.20640365694487    9.30683243338232
H         1.68189867719508    5.93785140909812    9.40049235189777
H         0.45853920005132    5.89503980685806    8.12405597096146
C        -2.73349752185275    6.62590730582178    4.85694544145632
C        -3.13370033216161    7.16440443017320    3.63472883365390
C        -4.06806121119234    6.46566947822342    2.88965514612193
H        -4.39352165876939    6.86994198894680    1.94257897051185
C        -4.61120370214006    5.26983474144855    3.34266136340061
C        -4.18502496873878    4.75982414537546    4.55985081002078
H        -4.60300443258358    3.83592396774874    4.92822440952803
C        -3.24036649242798    5.41870281612934    5.33061207378797
C        -2.57783900165738    8.47176695880433    3.15913741209464
H        -2.97625905783107    9.28871227547725    3.76147353480213
H        -2.85548164460569    8.65019772537407    2.12440197740530
H        -1.49039614494515    8.49102805319709    3.23746527591668
C        -5.64991551393891    4.56503556785752    2.52848829102723
H        -5.88683927178000    3.59137197774035    2.94854346354306
H        -5.31435045621638    4.43752904638549    1.50062429615813
H        -6.56419007519702    5.15649651930196    2.50323008896314
C        -2.77656542589694    4.85501218387186    6.63833663068904
H        -1.71278174876514    4.61630898235445    6.59368567469966
H        -3.32047206074266    3.94513219883180    6.87229169511179
H        -2.93450462024353    5.56867940423258    7.44682566999661

