31
CSD_code = CIWTAD | q = 0 | S = 0 | Stoichiometry = C4H12Cl2N8NiO4 | MND = 6
Ni        0.24489093275313    1.90230232648640    3.19561233214799
Cl        1.96808739807288    1.46533805589918    2.12026680867830
Cl        0.64008511695542    3.98715310017428    3.14341675411545
O        -1.34822901324428    3.44197879817055    0.74018042246190
O        -0.31312119122527   -1.09755582149041    3.49583329095438
O         2.32833386127945    0.49637595009562    5.42834032428327
O        -2.34617116431699    2.91466124603856    4.22922728814301
N        -1.28905806112447    2.28055949827465    1.52025458585331
N        -0.47731322784437    0.06680440859234    2.73100708447528
N        -1.80200926550779    1.03300789973214   -0.41361459361591
N        -1.87014061258522   -1.19559084923826    1.33593226969056
N         1.15181827172466    1.20246748388661    5.15305937461218
N        -1.17074513374974    2.23468117705584    4.52753901853135
N         0.54122012644592    0.98195654316516    7.41408305825134
N        -1.74449390020398    2.49347740820924    6.78171864356147
C        -1.45044458344546    1.16667140956623    0.90155652581808
C        -1.27730729518475   -0.03987627568918    1.72857054164999
C         0.32671073252243    1.36373801129968    6.12185893930473
C        -0.90942455283136    2.08712068750177    5.77754088643265
H        -0.82066084146720    4.07530996842532    1.27464182102380
H         0.48026651214781   -0.91866814124929    4.02259564470732
H         2.83858632435137    0.61115182693515    4.60621998055311
H        -2.27522287446898    3.07508696129392    3.27002329631113
H        -1.69886654050307    1.89599720160385   -0.93223071923633
H        -1.47327098974220    0.20959956327715   -0.89320450984213
H        -2.67728880486471   -1.14955302352389    0.73934783160136
H        -1.79795217683069   -1.97314066019476    1.97234930760271
H        -0.25292490885747    0.78263998420036    7.99829382858525
H         1.35831414247523    0.40720283257127    7.55388913141934
H        -1.31499369714837    2.74733997332214    7.65710261120844
H        -2.47047458358319    3.12196245561114    6.46478822071125

