53
CSD_code = CIWWIP | q = 0 | S = 0 | Stoichiometry = C28H18N4NiO2 | MND = 4
Ni        4.51471302266743    8.08566275524674    0.00004883606592
O         5.82635223515994    6.81734799349030    0.16541644639412
N         3.43735409787408    7.17110696665191    1.34168626401992
C         2.35867480033573    9.04221899765442    2.43166921053592
H         3.32923326422184    9.49476305981972    2.58218795227035
C         1.29959923785193   10.95118289423980    3.48851050585667
C         4.77546524347913    5.15881293018408    1.52554011399931
C         1.20319892079410    9.68825720314666    2.85812194864601
C         2.26269472721281    7.81210855212040    1.78934215152242
C        -0.05068058529499    9.10663000647267    2.65692042457484
H        -0.93974602831594    9.62286316278849    2.98653348424795
C         6.97596715043961    4.82680537371791    0.54308310146957
H         7.78799788178862    5.21053543382004   -0.05594892328786
C         5.84326644505729    5.66279410367409    0.72192321779367
C         1.01108276187151    7.23014414106608    1.59811821143298
H         0.93891680170447    6.28382634266584    1.08183080745266
C         3.64816326435375    5.96811873147856    1.79001955405913
H         2.91087800285830    5.54692953726623    2.47785794968570
C         5.97109042875743    3.08699097397578    1.87487366359170
H         6.03321567255995    2.09843930453795    2.30225648559121
N         1.36814165342899   11.97660598961856    3.99590946450043
C        -0.13407892662117    7.87875115508976    2.02941350783465
H        -1.09938080514545    7.42346758355283    1.86650244833564
C         7.02940814598957    3.57876110056016    1.09778258739315
H         7.89901635238368    2.95908457278099    0.93458658772956
C         4.87031474478793    3.86947100517746    2.08648054992971
H         4.04852227096582    3.50789952637266    2.68876261059321
O         3.20309286391985    9.35399649066551   -0.16532762314230
N         5.59204725397292    9.00014762245434   -1.34163631239013
C         6.67056917314874    7.12897774570300   -2.43166501650246
H         5.69996307662769    6.67652906138492   -2.58217473923339
C         7.72966749166991    5.21989085201994   -3.48846711038647
C         4.25399148107760   11.01246867498564   -1.52552700008644
C         7.82599151298304    6.48283998032556   -2.85807665398988
C         6.76665878867902    8.35907715396753   -1.78933546494464
C         9.07990347332208    7.06445442332388   -2.65704219262210
H         9.96890966538392    6.54817862027303   -2.98675280709035
C         2.05352313414975   11.34456147992632   -0.54301797174383
H         1.24150162116607   10.96087268220025    0.05604996079428
C         3.18619909660675   10.50853872540212   -0.72186195096448
C         8.01830305197785    8.94096655216656   -1.59815127929005
H         8.09054424971974    9.88722305184772   -1.08176125634057
C         5.38126410411267   10.20311897642616   -1.79001678121268
H         6.11855759428396   10.62425977762974   -2.47787627940678
C         3.05838889002882   13.08429621762677   -1.87492193935745
H         2.99627396015175   14.07283530282715   -2.30233074811806
N         7.66152354114757    4.19425761506436   -3.99570557987636
C         9.16340542240643    8.29233518997155   -2.02957303290941
H        10.12875713032160    8.74750259394863   -1.86659345359954
C         2.00009495423005   12.59258800937227   -1.09775640147659
H         1.13049622129740   13.21228200748288   -0.93457603359621
C         4.15914628105109   12.30178669371128   -2.08652528969280
H         4.98094518539692   12.66333510212299   -2.68880620505974

