51
CSD_code = CIWXAH | q = 0 | S = 0 | Stoichiometry = C22H18CrO8P2 | MND = 6
Cr       -0.00018925933366    0.00025370389304    0.00016931793622
P         1.09444775223864    1.08655747856281    1.73584015086212
O        -1.47826917917897   -1.72397190370992    1.97406430483438
O         2.25308417637314   -1.98769634304627   -0.14249627343833
O         3.35343353524696    1.02468583750673    0.37343911621519
O         2.32645369055480    0.74371438667397    4.14025973479727
C        -0.89755371625146   -1.06089646079275    1.22807098162446
C         1.39853452187821   -1.21588116758595   -0.06901225385313
C         2.67701143164975    1.80769615326095    1.24381557510770
C         4.47951656539410    1.66770996415860    0.04945215007629
C         4.55149578301799    2.86689978462323    0.69146936688942
C         3.37620034944392    2.96388715279731    1.47012617394435
C         1.69022697904979    0.09662514241264    3.13329256719876
C         2.73049248309129   -0.18698744411273    5.01415746524737
C         2.37450178190803   -1.43287948394037    4.59584416607600
C         1.70052280738865   -1.25191305462543    3.36716819427112
C         0.38068186601651    2.50767274737537    2.65326562787846
H         5.14644611632111    1.18270540343095   -0.63631877574356
H         5.33557785740309    3.59270731108639    0.61840622127012
H         3.09256791919996    3.77798075210948    2.10552417409950
H         3.25401306707079    0.15299120129999    5.88661443140099
H         2.56711470293475   -2.35993817001880    5.09570508790102
H         1.27564135572153   -2.01142040555345    2.74203256707378
H        -0.56148281372792    2.18920169983959    3.10042115557162
H         0.18146982507733    3.30849094616166    1.94053464853118
H         1.06385499577903    2.85182627701581    3.42963844041228
P        -1.09475849648449   -1.08593462932283   -1.73548768275469
C         0.89718331509170    1.06071645926033   -1.22838130445104
C        -1.39912882668715    1.21617838943861    0.06969989021277
C        -2.67718104272232   -1.80761274434802   -1.24389947506969
C        -1.69024307278118   -0.09643166609618   -3.13336303732011
C        -0.38005452073262   -2.50688489076338   -2.65245357897059
O         1.47671063342550    1.72506687577556   -1.97427257499120
O        -2.25435790084296    1.98721112126478    0.14400339706293
O        -3.35432836091285   -1.02457853329379   -0.37413199536124
C        -3.37559871826545   -2.96431563562830   -1.46989595733755
O        -2.32496840590651   -0.74397533996691   -4.14096400729590
C        -1.70143393341519    1.25211805816880   -3.36711313074513
H         0.56212247520884   -2.18819502353811   -3.09944411861370
H        -0.18072943849230   -3.30754211367076   -1.93957096747496
H        -1.06287390689133   -2.85144254368819   -3.42895160803416
C        -4.48014268650989   -1.66809614152432   -0.05021758065176
C        -4.55125375042865   -2.86758685262831   -0.69176193749282
H        -3.09126655070142   -3.77853882513805   -2.10480360020463
C        -2.72921527826511    0.18648368676789   -5.01502445764101
C        -2.37464252264515    1.43264207068603   -4.59627513671878
H        -1.27770885908360    2.01191046915977   -2.74152655449813
H        -5.14757623048070   -1.18315575991038    0.63510320897829
H        -5.33494071252857   -3.59380279036020   -0.61863432381693
H        -3.25172797547863   -0.15384768572412   -5.88794505947602
H        -2.56767982773724    2.35959253625736   -5.09617272351663

