43
CSD_code = CIXGIA | q = 0 | S = 0 | Stoichiometry = C22H12BrN4O3Re | MND = 6
Br        6.32950364133924   -0.06836259309136    3.41323389366019
C         6.11470713990596    3.48867800603789    3.32140543883137
C         7.14247095587998    4.45358871236351    3.39717383064099
C         7.69156419276570    4.75555042507650    4.64651769909587
H         8.48257833946203    5.48545287670067    4.70772520549560
C         7.20214996121559    4.09789469467376    5.75205223337227
H         7.59618282838646    4.28813350386697    6.73732343426696
C         6.18171927145717    3.16353792196021    5.59444937960678
H         5.78819606059318    2.63831206896370    6.45533473858797
C         4.01236326878021    1.79421174296532    0.94755109132262
H         3.23783116900630    1.04091290475989    1.00757060798651
C         4.39494916641215    2.30484035218850   -0.28921415823562
H         3.91681540303330    1.94005189010695   -1.18381462238729
C         5.38088857420355    3.26290183287135   -0.34916276344804
H         5.69909602455989    3.67297264529463   -1.29590291965955
C         5.97176339448812    3.69345190053262    0.84522244446515
C         5.52911920830264    3.11476335210128    2.06032994979942
C         6.99377269267230    4.66672526139368    0.95344054615742
C         7.56068897535870    5.04740554468493    2.17410984864556
C         8.53411960466146    6.21329244314643    0.67445255222405
C         9.40703118364413    7.17228633505825    0.03051744362114
C         9.42011992386620    7.36323670144715   -1.35147631991672
H         8.77211198142568    6.78821638098642   -1.99756598659508
C        10.26993560319898    8.29579670034063   -1.91552691977156
H        10.27377831802533    8.43670094228025   -2.98619074445751
C        11.11411162382770    9.04746089962757   -1.11477235371675
H        11.77490980075653    9.77456037249803   -1.56188917201680
C        11.10804482007236    8.86294416844138    0.25926787488885
H        11.76567998786279    9.44714288791360    0.88506873828139
C        10.26272774789273    7.93349792642850    0.83005342172038
H        10.24188135299027    7.77377330247924    1.89599512965949
C         3.10853082857826   -0.18123732549760    3.39410650325456
C         2.72334980685014    2.44550281378448    4.40244222645339
C         4.25678697540179    0.51109483874411    5.81353728305058
N         5.64686598919698    2.86127710160557    4.42267633748310
N         4.55676526318445    2.17927557238983    2.09092127301412
N         7.63124383361916    5.42186649805321    0.01271916268656
H         7.47502319081281    5.39555315732201   -0.98047028488186
N         8.50191037004763    5.99991990053268    1.97129397790382
O         2.50703356146863   -1.05964647850882    2.97192007181985
O         1.83924076037530    3.14566504606746    4.61445226338887
O         4.35768917203224    0.04866024228345    6.85619403979850
Re        4.23194803238432    1.28683652913034    4.02182760390354

