54
CSD_code = CIXHAU | q = 0 | S = 0 | Stoichiometry = C21H27FeN2O2P | MND = 5
Fe        5.45028267745012    7.53370781892023    2.35231060999151
P         3.86673166834740    6.62265630536880    3.57517140913519
N         5.67755430230764    8.20196906134442    0.46328072463443
N         4.25254938945918    9.02436996778466    2.37648167400800
C         6.48263528865736    7.71850824188877   -0.50386584559026
H         6.85951719325083    6.71794335713461   -0.34175451614958
C         6.82063073641689    8.40714003300249   -1.63865102349599
H         7.46086741676604    7.95140391321997   -2.37713282101674
C         6.32070974544532    9.70373578334658   -1.82799568472868
H         6.57820903520156   10.26966637581068   -2.70985920977679
C         5.50178939847415   10.22759623443327   -0.86252316560068
H         5.10852066954200   11.22702402264828   -0.96177644047121
C         5.17531224756555    9.46669513704796    0.27066850327887
C         4.31001316949308    9.90013724755782    1.32190917506334
C         3.52530815221385   11.06309383084553    1.29943161642642
H         3.60824702465901   11.74280482772466    0.46705449245834
C         2.64981554895988   11.31796985089476    2.32120102002444
H         2.04152988189240   12.20861367667855    2.32829077989909
C         2.52695523398231   10.36890258866684    3.34714341942450
H         1.80656890489045   10.50972357420668    4.13842837493855
C         3.32164579550446    9.25052742546536    3.33441005910085
C         3.18951153706957    8.16772791099475    4.36100009982280
H         2.16644356188772    8.08136041404433    4.73475145066641
H         3.85393426199527    8.39188500154858    5.20233720005853
C         4.24163258560133    5.57586157199979    5.11758016018474
C         4.40914687404693    4.11043819940014    4.71654392315318
H         4.89585853609222    3.56082507515630    5.52182055393282
H         5.03550790640449    4.03332839596710    3.82892711812749
H         3.45231546945220    3.63295348136214    4.52163331191166
C         3.22380959771142    5.70525875579496    6.25237475902321
H         2.22001963658933    5.43739065056982    5.94234774855386
H         3.20580546445831    6.71427781027977    6.65650949668771
H         3.51306300239277    5.03252979134253    7.05966650503357
C         5.59739693432940    6.07690338011548    5.62476717930878
H         5.57770825403926    7.14292451552866    5.84451161009677
H         6.37072414962000    5.90211743744677    4.87923088921426
H         5.87091729593344    5.54926861146411    6.53738207482237
C         2.34551496382804    5.88796908738993    2.67459227093716
C         2.86510943899983    4.75874448133836    1.78241075434639
H         3.11650284584440    3.86981673000413    2.35243732406111
H         3.75886360558807    5.09357034224849    1.25223912323054
H         2.11071305049518    4.48407077985879    1.04607905076975
C         1.82996440089993    6.99806938569719    1.75314699029795
H         1.05930417446297    6.60038130363159    1.09325227167110
H         2.63899434582851    7.38119189686494    1.12926814255034
H         1.39642259242809    7.82443703691393    2.31333754477558
C         1.19402247588704    5.40098898375019    3.54821986006037
H         0.84988421399361    6.18069680883166    4.22520526163101
H         1.46775290529360    4.52153739203010    4.12430245273021
H         0.35522341037355    5.12577557306751    2.90824037032656
C         6.41061001444921    6.09259132640965    2.14992259300873
O         7.07006364791380    5.14810536553123    2.03840459992600
C         6.69431829492649    8.24586140237515    3.40255089178287
O         7.52534707068361    8.70485182705165    4.05738326574267

