81
CSD_code = CIXLEA | q = 0 | S = 0 | Stoichiometry = C34H32Cl4N4O6Os | MND = 6
Os        2.93725978018112    1.64306106404225    4.21127248710048
N         4.79247113582854    1.97778825719930    3.45819401609593
C         5.80986969408614    1.19523911813000    3.92204091293910
O         5.68303981269515    0.42263145059466    4.84436806190941
C         5.12083583192874    2.82306666640519    2.40815189807755
O         6.19807456333960    2.78617315605662    1.84223393010685
C         4.11061549056896    3.84093496605845    2.00186689549900
C         4.36815030338958    4.53000693719710    0.82126521339313
C         3.53009731871407    5.54020845134994    0.39488917100392
C         2.41852098046343    5.90650935248470    1.15021981259925
C         2.17250091919751    5.25042838543244    2.33275074311655
C         2.99914196527810    4.19580052657190    2.80990680321847
O         2.73432780819710    3.64229640952918    3.94384864370895
Cl        3.84745374171554    6.36075702341905   -1.08624544604080
Cl        0.79476039017076    5.65984259591703    3.27768635824740
N         2.09211963408308    1.55955492189540    2.27832437293026
C         2.76646793194229    1.34186522629013    1.14926440513865
C         2.27490475934331    1.68232543675761   -0.09484293852783
C         1.02680172414516    2.28828645308245   -0.22527669371929
C         0.32360978537534    2.47932218866020    0.96066020662872
C         0.88207754364194    2.10912895338597    2.16858147526466
C         0.50212989759263    2.69095224304109   -1.58661167060448
C         1.47966693348201    3.69632116229496   -2.20998175062553
C         0.40670295408449    1.43713501371411   -2.46779774031781
C        -0.88058709807084    3.34183718140381   -1.50876927478732
N         2.86160716765842   -0.37179860428748    4.49818592384105
C         3.54835827007601   -1.15396598687186    3.61619801693652
O         4.08129609814468   -0.72061584157815    2.61989499346391
C         2.30005648447992   -1.04136969129505    5.57537090485894
O         2.47517575684349   -2.22879190686148    5.77989617453432
C         1.41483997717018   -0.26182814677396    6.48679248057375
C         1.06492690455433   -0.87783881319341    7.68357715081060
C         0.20279305993884   -0.26351477004779    8.56927146413213
C        -0.35393677170196    0.97805823343761    8.27199548539371
C        -0.03836648697234    1.57971467580660    7.07681821482227
C         0.85150523403297    0.99249111672376    6.13583874142566
O         1.07925027591486    1.58746626222769    5.01467689490182
Cl       -0.19005960325288   -1.02580988820499   10.06304065762173
Cl       -0.68648349229936    3.12514134375161    6.68983986921324
N         3.50993571592323    1.97991915239049    6.21720086542370
C         3.99046879533094    1.04982873075332    7.04229631646345
C         3.96527751735442    1.18078394450676    8.41629441085096
C         3.42156854670456    2.31678735081202    9.01269510197586
C         2.95432949961229    3.29154416332335    8.13587290087866
C         3.01331335265367    3.08661338299942    6.77111917928929
C         3.36249438109442    2.44579041909744   10.51968126427971
C         2.77629657854027    3.78658383784482   10.96753137594456
C         4.78391811433949    2.31867635415266   11.08620933762350
C         2.47762445352088    1.31812261494458   11.06801310679610
H         2.88688417342824    1.47399484850191   -0.95693336279089
H         3.72380136372316    0.85290221502157    1.24118156595468
H         0.33285929475022    2.26929588615188    3.08675176335503
H        -0.65711660841351    2.92339465723691    0.96920070698202
H         4.43688903646018    0.17982701590015    6.58708526610786
H         4.36977584972501    0.37799883328867    9.01042433358210
H         2.63622041543127    3.84402985556509    6.09701385046161
H         2.53155313426853    4.21493021587140    8.49321990215785
H        -1.02638562001314    1.46028074684941    8.96364462132361
H         1.48929855836759   -1.84754673294808    7.89563717427011
H         1.76217529654611    6.69470360326252    0.81710724236454
H         5.24248818897752    4.24947782745153    0.25368301913590
H         6.76640932921675    1.32707987437311    3.39110080027380
H         3.58179431907807   -2.22240789311959    3.88356965206643
H         1.54796868263073    4.58790656348339   -1.59188340578769
H         2.47564546173012    3.27567809035750   -2.31211213540157
H         1.12961547961917    3.98748912251869   -3.19723225849311
H         1.37970821582810    0.97600380481569   -2.60975236546070
H         0.00998053291484    1.70305610680665   -3.44449105482627
H        -0.25734103216065    0.70447973239975   -2.01421496328396
H        -0.85517872787386    4.24247231051976   -0.90006678682847
H        -1.20313197953537    3.62254205373775   -2.50856891877469
H        -1.61707318866951    2.65354177840219   -1.10094324570383
H         3.38411403042934    4.61725807678199   10.61651177640529
H         2.75234712708882    3.82445836401275   12.05400632351966
H         1.75791580099158    3.90953266434462   10.60685315929090
H         4.76450889419054    2.45789943972912   12.16425828335769
H         5.43405346490551    3.07568528589184   10.65314120917663
H         5.20957002000836    1.34154091490179   10.87839597053454
H         2.44917682636851    1.36566567189707   12.15372238826686
H         1.46276153546975    1.41925762869404   10.69174296726148
H         2.85170849347721    0.34051036286122   10.77833579716436

