63
CSD_code = CIXLED | q = 1 | S = 0 | Stoichiometry = C27H31IrNO3(1+) | MND = 8
Ir       10.25894331985873    9.03348483810446   12.77349564189105
N        12.27274203745844    8.45731357984842   12.73818721498023
O        14.44796455991134    8.48801957573257   13.15322333666308
O        10.80995326395422   10.37658801831657   14.14322298412712
O        10.06153243088401    7.31768520756726   13.16773273118991
C        12.81780402024925    7.31896999009495   12.16592530706998
C        12.26199288362177    6.26369702956646   11.46326085252963
H        11.19428396142043    6.23032679453817   11.33257233615409
C        13.10168860815588    5.25239991851462   11.01248406962668
C        14.47758853902745    5.33558268626274   11.27244049093868
H        15.13048292617967    4.55385876705241   10.92459431290133
C        15.04929522410382    6.37609256793919   11.98102887132004
H        16.10607320603024    6.41226834636287   12.18565746737625
C        14.19425982843932    7.36332236590127   12.42857964062023
C        13.27655917446400    9.09394438866742   13.32710479506208
C        13.22018384789767   10.30853947269235   14.08718768445044
C        11.97357907455887   10.88123580972425   14.44380492676670
C        11.99107946739089   12.06882579153163   15.20412991870309
H        11.04392024891147   12.49565995901836   15.49562715173046
C        13.17533081209542   12.64081068813314   15.60233757018818
H        13.15409233693080   13.54346296756483   16.19332416628502
C        14.39614412747501   12.06960798732033   15.24918487261951
H        15.31961978318069   12.52831337212966   15.56266636034808
C        14.41403126993132   10.91544078695387   14.50245813198665
H        15.34851630770596   10.45642329805730   14.22083856189497
C        12.49048399367626    4.06996460414896   10.27621179678192
C        11.55017336465192    3.33677659205788   11.24349998543043
H        11.07369346011897    2.50245690378264   10.73537516850871
H        10.77679098846318    3.99714576810497   11.62504246631260
H        12.11107545195556    2.94840357277335   12.08988098637047
C        11.69703742297078    4.58284023494965    9.06577578488417
H        12.33787872010464    5.17290555005663    8.41430170301192
H        10.85413436566230    5.19410981755990    9.37267657611984
H        11.31279825067798    3.74156163174643    8.49523140168169
C        13.53767775855756    3.07474981649306    9.77104283183624
H        14.22951479285189    3.54760503483763    9.07814817699422
H        13.03718513286353    2.26670968382375    9.24332027844763
H        14.09440069728590    2.63442316917382   10.59395005624995
C         8.24904017580865   10.08140722032580   12.49459119504581
C         9.19810282626298   11.00276327412500   11.89295373649792
C         9.88834610374754   10.32487088117814   10.88777404291983
C         9.31508568201487    8.96082874874265   10.79669959725533
C         8.22835989774766    8.88088856725778   11.72816069950984
C         7.31960934964396   10.45276561810198   13.58841932709426
H         7.83474691607948   11.04045207574844   14.34557071131811
H         6.89098966555107    9.57291241850973   14.05995189139318
H         6.50881884250463   11.06403868003673   13.18665902062331
C         9.35075972129369   12.41593686143713   12.32031140147638
H        10.11939783453742   12.92715725385357   11.74773454481696
H         9.61207680705899   12.46432225722465   13.37774358347495
H         8.40567628434150   12.94306673146616   12.19005117087126
C        10.86912241491707   10.88206835978459    9.91548699099259
H        11.58911647700496   10.12799662692440    9.60590475854248
H        11.40779764784788   11.72898352586662   10.33320948736905
H        10.33911330994449   11.22209392182992    9.02366770953684
C         9.55498992076515    8.02791407208849    9.66077173550298
H         9.02045049858319    8.39942994364326    8.78388645447918
H         9.18375873244539    7.03356198877040    9.89284523995913
H        10.61051302987553    7.96501715258754    9.40607533425242
C         7.32391943071017    7.71260860246387   11.89003356823527
H         6.96911167994485    7.36710992027453   10.92142521501147
H         6.47075002769426    7.95793963956897   12.51460140881306
H         7.87964106400912    6.89853907108365   12.36664456495620

