82
CSD_code = CIXMII | q = 0 | S = 0 | Stoichiometry = C30H46N3NbSi2 | MND = 5
Nb        9.02569673709682   11.10912400752263   12.21826186968547
Si       11.54474304592690   12.42687782208057    9.93621822605728
Si        9.64909177948947   11.87448120085533   15.59438820533448
N         9.58040283491007    9.46894033838855   12.65154146096425
N         8.11104954189806   13.19389181433889   11.61173163396789
N         7.51545671708089   10.68838869054852   10.96891315684477
C         9.89420150506242    8.20129587583347   12.95359795738106
C        11.13252916189259    7.63215112147561   12.56305236272676
C        11.40848814535536    6.30770293311661   12.85240447442133
H        12.35706771386217    5.89114424301192   12.54203365392398
C        10.49817539796988    5.51537633530504   13.52855920268433
H        10.72645654319973    4.48189239734135   13.74265526121750
C         9.29357029951996    6.06532068593967   13.93536690080298
H         8.58265693331638    5.45507365527080   14.47536170113102
C         8.97907051553647    7.38339519803118   13.66720016584992
C        12.15463843621000    8.47341733712571   11.85651176212293
H        11.68125537657813    9.35603639391097   11.42854463637130
H        12.91787966214759    8.80087977294633   12.56411246852684
H        12.64934110982042    7.90220992401869   11.07275492892530
C         7.68984037260255    7.97291081635710   14.15003446534616
H         7.29441845380147    8.65817302689427   13.40042584704191
H         6.96128906498299    7.19113543038565   14.35260526992904
H         7.86354154759318    8.53618319923243   15.06853884848200
C         8.44521960988481   14.40522525916914   12.04741245002256
H         9.14782315294705   14.43840774014266   12.87144050908860
C         7.93248641844209   15.56767535052004   11.50711278109208
H         8.23498177707855   16.52864908753196   11.89176383381350
C         7.02417373416661   15.46653525898793   10.45925112830583
H         6.60455521216745   16.35213495767903   10.00608250179442
C         6.66508654399283   14.20960427178255   10.01496679687212
H         5.95882434537987   14.08252061365098    9.20844749750345
C         7.23125714897010   13.08959532457708   10.62200076813931
C         6.86153844149897   11.70355655596180   10.18762561682202
H         5.76307641266008   11.60976745812353   10.23771854031396
H         7.11375365006941   11.60212101055048    9.11117702323158
C         6.92636030946097    9.41645197179874   10.81903837260977
C         7.58398873584374    8.41658922828193   10.08590812746274
C         6.99643083299112    7.16649197299283    9.95934828325213
H         7.50976497900233    6.39950577080196    9.39767980529751
C         5.76998953072958    6.89374102212693   10.53531352167657
H         5.32111948829053    5.91820340197814   10.42337409865576
C         5.12714338573371    7.87371664894444   11.26750056507565
H         4.17802439935766    7.66037268609726   11.73891352523647
C         5.68952272016618    9.13227734340317   11.42336093340345
C         8.92287857361936    8.67488849004706    9.46076210216340
H         9.06976123571135    9.73927600461478    9.26946590796429
H         9.70542710732419    8.34119741592748   10.14405989699765
H         9.02057537396906    8.12249531424801    8.52772597807479
C         4.99432017360959   10.14895572826534   12.28722585554650
H         5.71495266596731   10.85773101768238   12.70177173811245
H         4.24185386823677   10.70334108876752   11.72238675875174
H         4.48483729518508    9.64943368421009   13.10910393240071
C        11.02293248811798   12.13286619855507   11.72899201268556
H        10.93310183671757   13.12538714597450   12.19270577720069
H        11.85895207694276   11.64415363503473   12.24606252152461
C        10.09353025346570   13.06765618131626    8.85379108121573
H         9.29349288792378   12.33471725370361    8.78805994677523
H         9.67387016137955   13.99166774766974    9.24413237596697
H        10.42893264888079   13.27097725557866    7.84104347016809
C        12.23314694910962   10.86414236606009    9.07169974792196
H        11.52082547452880   10.04529833823427    9.07272157329427
H        12.48510892140123   11.08128784559043    8.03750595605768
H        13.13739551034517   10.51522175284430    9.55969073437153
C        12.90834325136699   13.77217017227398    9.81773723968174
H        12.56579752429710   14.72660470565768   10.20780604436636
H        13.78917360902842   13.48638942824395   10.38409791463489
H        13.21890609622727   13.93252924138684    8.78990612861791
C         8.27266153593056   11.68724553657770   14.30398809602706
H         7.71607603555594   12.62969143095476   14.21943754798091
H         7.56046424472487   10.93862177917378   14.66167005687032
C        10.93095732492618   10.46217551613322   15.46795640174467
H        11.71940155177574   10.56667523962692   16.20778561352668
H        10.46133950929572    9.49483333743234   15.61914296912576
H        11.38755295006443   10.44306472829815   14.48026624611403
C        10.56209954213383   13.55269848639155   15.38037716734453
H        11.28293821403827   13.70087419858453   16.17850123600327
H        11.10906430444127   13.59511657619414   14.44237038765110
H         9.87301581763675   14.39302189466281   15.41112186034470
C         8.93220973864460   11.87709690270932   17.37471378925690
H         9.71767128733136   12.00107002001277   18.11308737754210
H         8.21865858547386   12.68267959609021   17.51873526607172
H         8.42179164996654   10.94490159023732   17.59444015049786

