84
CSD_code = CIXMAA | q = 0 | S = 0 | Stoichiometry = C32H34F12N3NbO2 | MND = 5
Nb        1.29948394068491    4.34017374477250   13.84543616513593
F        -0.98829435629306    1.24382833556468   16.48414751853123
F        -2.20080072650776    2.69385063959010   17.50169550147296
F        -0.05405108589316    2.87137306836488   17.52616710867945
F        -2.01805641090776    5.24078999642547   16.67362079763253
F         0.10437517251167    5.23390176008974   16.29065373228168
F        -1.27648503572269    5.61487665348033   14.68911591032952
F         1.92866228596670    8.31090591394726   15.89532282704788
F         4.06836636441733    8.50886636341130   15.97628944729898
F         3.03622302272541    8.75902282587708   14.10794473065020
F         5.49511388547765    6.69239313116234   14.31354156644269
F         4.00082353355833    6.67798990830310   12.75722145087141
F         4.41561524579615    4.88412496643486   13.84966061338054
O        -0.02479698443548    3.01875571842121   14.73469570259884
O         2.02645279438071    6.03074725366968   14.50454509546178
N         0.33497228026330    4.90594919318763   12.45642796883569
N         2.68172126606975    3.37240685938594   15.51661574563176
N         2.24208672709269    2.91445730020782   12.89016746233530
C        -0.33899754883643    5.34470528436911   11.38277791246254
C        -1.32540781345583    4.53659908855720   10.76183692609879
C        -1.95951906514603    4.99320567776635    9.62071502505491
H        -2.71210547881458    4.38281502338342    9.14586736432176
C        -1.65444325874667    6.22858996226864    9.07710115349580
H        -2.15517844845878    6.56503280522755    8.18121942752276
C        -0.73008173626047    7.04535346422636    9.70436967306669
H        -0.52949132331599    8.02363275529460    9.29591708588506
C        -0.07137151030984    6.63265585489736   10.84810943155624
C        -1.73680619139126    3.24239259390403   11.41972083598042
H        -0.92565840760343    2.94218752727219   12.09756234592211
C        -2.99905143188717    3.50750158076633   12.25041387486138
H        -3.28924305747994    2.61385578632735   12.80051916858281
H        -2.82033427342049    4.32217644494466   12.94919918503152
H        -3.82337682505805    3.79357094113683   11.59996936739902
C        -1.99402608685572    2.11719225285934   10.41894719629055
H        -2.12782796817528    1.17598117469607   10.94681961535796
H        -2.89495900212709    2.30457090827673    9.83985712933451
H        -1.15299893558897    2.01818278484956    9.73912992918831
C         0.85670370698732    7.55733946385738   11.59622983475501
H         1.52780316337683    6.94076677304250   12.20566723370472
C         0.01605097097107    8.40823700238320   12.55607025799858
H         0.65049771160176    9.11212976892037   13.08834455318171
H        -0.73957558819483    8.96651519376938   12.00661529676725
H        -0.47921681242094    7.76226990283912   13.27859219287747
C         1.70607276777901    8.44319546088374   10.68647230916384
H         2.47710096158091    8.93301100017706   11.27577801522948
H         2.18734674186021    7.84742270326797    9.91492443637204
H         1.10375134742998    9.21367968495017   10.21154435226682
C         2.72447246135180    3.58741764514586   16.82634167234711
H         2.17472100906294    4.44328586213674   17.19599303263593
C         3.42262967670869    2.77577791306774   17.70077175772988
H         3.42099793483119    2.98938310375017   18.75716590644959
C         4.10904692699224    1.68562171192661   17.18396841441604
H         4.65931423803641    1.02230509688750   17.83413234100285
C         4.07203760667763    1.46602811833708   15.82028905549809
H         4.59359071625188    0.63233562413462   15.37572776683715
C         3.34290572556862    2.33643240281446   15.01216967251160
C         3.29871256985362    2.15342127841134   13.52523688075212
H         4.28292404772075    2.45562636512351   13.12011336474078
H         3.18702217377778    1.08339715329969   13.30194526239258
C         1.99812510157204    2.42397542901668   11.57819991566946
C         1.29090112881505    1.22520221570398   11.41391753878449
C         1.10406283820389    0.72006120719231   10.13336328796843
H         0.56663250137278   -0.20890607848638   10.00865088875602
C         1.58615580232065    1.39236640635812    9.02676181937382
H         1.43175897146017    0.98899153449667    8.03722837487423
C         2.25810464310991    2.58954018996786    9.19277641246868
H         2.62571723403587    3.12264252830306    8.32857914491251
C         2.48133562500601    3.11339639692710   10.45788791569734
C         0.71593930514261    0.49039796000239   12.59152309399654
H         0.51640142355102    1.17722972426454   13.41454880223102
H        -0.21366959053401    0.00439734064306   12.30438079594012
H         1.39530844646473   -0.28923610982888   12.94055907827361
C         3.23141297704186    4.39912349881622   10.62472771466084
H         2.59233044472088    5.13494311108388   11.11641258993408
H         4.11974915989133    4.25082389895515   11.23869693964324
H         3.53957582672896    4.78849192119219    9.65830228788995
C        -1.11086071544642    3.36477182842272   15.44533863740073
H        -2.07092254768231    3.15790388026967   14.92435103732692
C        -1.10173014314147    2.54476731975550   16.75456703695655
C        -1.09233318416722    4.86707072120375   15.78958090650561
C         3.17188879358426    6.52110731979727   14.98754428869056
H         3.49442854833144    6.08024981044087   15.95951290401930
C         3.05193251745979    8.04331919089692   15.23112313896864
C         4.29071127808650    6.22935398216651   13.97574984732367

