79
CSD_code = CIXPUU | q = 0 | S = 0 | Stoichiometry = C32H40NiO4P2 | MND = 4
Ni        0.00002470099002    0.00004799534557   -0.00001011196374
P         1.20726443540712   -1.50386565477710   -0.88552817882660
C         0.65408047924128   -1.98492114302437   -2.55065419236946
C        -0.22492402648194   -3.04419076818908   -2.74543828137762
C        -0.68938459132277   -3.34482842025636   -4.01333547511222
C        -0.28888645042078   -2.58627237775391   -5.10032032961791
C         0.56770454260906   -1.51367140197880   -4.91085624327052
C         1.02949097572793   -1.21046810130932   -3.64315976550751
C         1.31675018301681   -3.11136907446391   -0.01120424468641
C         3.00417915531864   -1.23301740355221   -1.18187377313117
C         1.51105572635933    1.15489520559509    0.25627446786198
C         2.16331705454355    2.19380213593589   -0.40573741996228
C         3.27771377655702    2.81072282076187    0.15869695043773
C         3.74857758686621    2.38924393790492    1.38906333112314
C         3.14197097407635    1.34581429624351    2.06910769908043
C         2.03877124101806    0.74441156882139    1.48604557854564
C         2.25919759970539    3.54444200376939   -2.37665340099952
C         1.69505714912033   -0.82937195201713    3.25841280887323
O         1.62603350242068    2.54548398485301   -1.62762544099695
O         1.33391873171527   -0.32357237392041    2.00242780298453
H        -0.56052082565875   -3.62734733483374   -1.90136889976477
H        -1.37329967458735   -4.16973410568328   -4.15282716566895
H        -0.65286943107741   -2.82146402910764   -6.09030214509828
H         0.86806549191600   -0.90755696092438   -5.75428921630112
H         1.66828309515315   -0.35314970930299   -3.49113445257214
H         0.32719620460866   -3.43609058642725    0.29433237455934
H         1.78735426488789   -3.86150257190916   -0.64648841085231
H         1.91357345031368   -2.96032552488111    0.88581522129505
H         3.15920096814911   -0.30696312864683   -1.72873533046178
H         3.50096359238015   -1.13826378118665   -0.21769638898121
H         3.43021313914964   -2.06868320237456   -1.73692964204089
H         3.78414002679899    3.62051854565593   -0.34528253705743
H         4.60827797634156    2.87976325796826    1.82278820922038
H         3.52863909255132    1.02897561760324    3.02591200880958
H         1.69062537812796    3.63185615811494   -3.30272167597709
H         3.29595581227675    3.28050336879467   -2.61774083636902
H         2.25070733287687    4.51319547607010   -1.86165987856085
H         2.71377390175797   -1.23806364889583    3.25130926021248
H         0.98712782122291   -1.62840678232175    3.47451328441089
H         1.62259313336424   -0.06230587306476    4.03769839044663
P        -1.20727127693355    1.50375928530225    0.88575507619264
C        -1.51104888728168   -1.15467783541514   -0.25650442328848
C        -0.65408058295662    1.98460521222519    2.55093537718887
C        -1.31679841676565    3.11138484756348    0.01166051508897
C        -3.00418903565387    1.23292505624532    1.18205962343595
C        -2.16344383563074   -2.19355764431881    0.40541421641487
C        -2.03863258251666   -0.74409763131930   -1.48629829436941
C         0.22493250804797    3.04384276685059    2.74585076252167
C        -1.02950191090174    1.21002623569312    3.64334083809235
H        -0.32724569704466    3.43615295112548   -0.29382303558848
H        -1.78740417857417    3.86143373323524    0.64704410117702
H        -1.91361012623148    2.96046679426481   -0.88538566816206
H        -3.15918967959674    0.30681488155685    1.72883264494166
H        -3.50096462114157    1.13824711245456    0.21786839162679
H        -3.43024064945305    2.06853305166525    1.73719779916152
C        -3.27784682380544   -2.81036647224107   -0.15913482480701
O        -1.62631406761271   -2.54531216799867    1.62735204143854
C        -3.14183067669024   -1.34539294167534   -2.06948119738326
O        -1.33363154157099    0.32383463788591   -2.00259934010633
C         0.68941052861502    3.34431046307003    4.01377674098167
H         0.56049826366030    3.62712565970058    1.90186502683761
C        -0.56772678205117    1.51308025982221    4.91107229462910
H        -1.66821472095193    0.35268377362069    3.49118898063359
C        -3.74857863728746   -2.38880524871483   -1.38952788417232
H        -3.78438772490383   -3.62013507218559    0.34477666739553
C        -2.25962342678529   -3.54425130315660    2.37628706738652
H        -3.52837833765249   -1.02850590234067   -3.02632045159791
C        -1.69460071425836    0.82967780146001   -3.25861854071736
C         0.28889154262483    2.58563595127231    5.10066614342183
H         1.37324926528441    4.16924909873830    4.15338782823712
H        -0.86803003306974    0.90682444217270    5.75441143684494
H        -4.60827380196461   -2.87925128595021   -1.82335056228970
H        -1.69114052023059   -3.63174047562791    3.30240419312510
H        -3.29638769633836   -3.28025424248595    2.61729032724220
H        -2.25115591308708   -4.51298820417858    1.86126183927928
H        -2.71329311102056    1.23843626725257   -3.25161508761886
H        -0.98659626236878    1.62867011156701   -3.47463753832466
H        -1.62210622592230    0.06261736206287   -4.03790751105049
H         0.65284289300340    2.82072820816262    6.09068047585489

