77
CSD_code = CIXQIJ | q = 0 | S = 0 | Stoichiometry = C38H34P2PdSe2 | MND = 4
Pd        4.36280197161159    5.83673441407984    0.46325497234867
Se        5.63597855384567    7.03594497043428    2.11796104555569
Se        4.06383678342330    3.76607465195004    1.61139490006518
P         3.80467404104717    4.74466473498977   -1.46904132499315
P         4.03227102133113    7.68436989747522   -0.80052537027251
C         3.34582767399578    5.94937870621858   -2.80545116830880
C         4.14617880334181    7.22931656205235   -2.59298578762861
C         4.42702331359171    6.77240225314689    3.56652887555260
C         3.07037140801774    6.62494872314113    3.29413329328630
C         2.18105090433549    6.39760406315603    4.32628277039326
C         2.63553184523729    6.33023441739907    5.63314939354698
C         3.98368051296522    6.49825729953544    5.90421895104780
C         4.88164424294065    6.71900338761462    4.87779560216526
C         5.32713207351299    3.71572801041352    3.05378392085151
C         4.90137730805316    3.43643696216891    4.34456683823172
C         5.82088138562916    3.40595521621912    5.37617312368307
C         7.15939015738998    3.65707323564961    5.12638248154883
C         7.58248217083802    3.92829938848006    3.83550951182347
C         6.67157536728172    3.95001311319089    2.79748258102758
C         5.47023009372430    4.25567032137027   -2.01799381548182
C         5.66120022954972    3.48981944149018   -3.16508903322564
C         6.94218192283918    3.15803383435252   -3.56457933901949
C         8.03542022667507    3.58781919738335   -2.82779096154846
C         7.85111015624919    4.35273206589543   -1.68764946629876
C         6.57176609193384    4.68830744164024   -1.27995067921821
C         2.78831378928534    3.28181191249900   -1.77544264219934
C         1.48052212127941    3.37748845252451   -2.24193682266238
C         0.71531507090301    2.23433897488036   -2.38315881610839
C         1.23825286939387    0.99795246683070   -2.04093503581263
C         2.52931444637923    0.90324608577569   -1.54648752889827
C         3.30240863564533    2.03941930445414   -1.40708522648740
C         4.78695779785688    9.31513671690720   -0.63948824997286
C         4.52522398616173    9.99382613981597    0.55052622714702
C         5.11629894704324   11.21744586165667    0.79263255324198
C         5.97876830063506   11.76501088093547   -0.14470645284270
C         6.25329005867395   11.08492397823740   -1.31960322302676
C         5.66732888652292    9.85624462920810   -1.56878541373382
C         2.24787008466041    8.02146389223957   -0.65086881813915
C         1.41594838272969    7.04245256398404   -0.10866020802294
C         0.05397428012682    7.26612171303790   -0.01126968815066
C        -0.48400125465770    8.46397150190701   -0.45272878147971
C         0.33928105844805    9.43892836923514   -0.99445760696898
C         1.70099925616071    9.22186348051866   -1.09538125998517
H         3.54228921967506    5.50221368022926   -3.78525027869046
H         2.27570617293377    6.16693257808159   -2.72501746261174
H         3.77051528031079    8.04938126810102   -3.21405093644868
H         5.20406281306499    7.05628779548797   -2.82607674004143
H         2.71245190383789    6.68924447158064    2.25925365762227
H         1.12978561605786    6.26840322605669    4.10889897318795
H         1.93939278592216    6.14481160395162    6.43840480868843
H         4.34119069163451    6.44512115891732    6.92273515959243
H         5.93783849615671    6.83302388550836    5.07656689904727
H         3.85151290407346    3.25812435755873    4.53112343617643
H         5.48691063512182    3.19575402545617    6.38246836933802
H         7.87341970288613    3.64392286346236    5.93752750634670
H         8.62638096489682    4.12625821927572    3.63680544390276
H         6.99683616954039    4.16199846627768    1.78410813888849
H         4.80411114336151    3.14683388786114   -3.72997967951400
H         7.08978700218826    2.55924807214582   -4.45151616938038
H         9.03360993735243    3.32148100268363   -3.14225315150618
H         8.70316532825312    4.68508517383295   -1.11299536836540
H         6.42721092971015    5.29255147000789   -0.36521110410613
H         1.05736306182244    4.34027364910595   -2.49336399506943
H        -0.29630224144047    2.31001099911490   -2.75483994938186
H         0.63434465085214    0.10934554115390   -2.14942685493877
H         2.93233170586148   -0.05704119404901   -1.26201609682259
H         4.30538415632779    1.97500070431152   -1.00669316272167
H         3.86021240972909    9.54692510716179    1.28017573071421
H         4.91355300550472   11.74044162542596    1.71502290825084
H         6.44601633436142   12.71985353084783    0.04528589486091
H         6.93351653158858   11.50928470519210   -2.04377436699642
H         5.89623922853708    9.32472949168901   -2.48160858690110
H         1.83177800106216    6.08857070691546    0.24062652015857
H        -0.58564791862158    6.50584494693748    0.41226171010995
H        -1.54633173082757    8.64015051135474   -0.37219111480528
H        -0.08185795439418   10.37262660727101   -1.33731883870358
H         2.34813808608609    9.98353662704554   -1.50950562089076

