79
CSD_code = CIXREG | q = 0 | S = 0 | Stoichiometry = C32H36Br4NiO4P2 | MND = 4
Ni        0.00044564388866   -0.00022751783769    0.00049167859958
Br        3.57579003193255   -3.71663024006731    2.14556855086455
Br        3.08263638074746   -3.87017452237293   -3.44062991703673
P         1.37803637976298    1.63255393544186   -0.37093357995474
O         1.70048071911363   -0.95123433856001    1.62217872123638
O         1.31431951304428   -1.67549640748381   -3.07494653742356
C         1.36403461311922    2.99284599151604    0.84279395249947
C         0.40333073548837    3.99593595504996    0.75373911974850
C         0.32181274934894    4.98015653592823    1.72092470871526
C         1.19553116073838    4.97406123526587    2.79525921387231
C         2.16040936222993    3.98563862038108    2.88841751829175
C         2.24175892433039    2.99894113025930    1.92144248833746
C         1.12197044257299    2.53802717583296   -1.94480726420042
C         3.17502176396727    1.29469089818093   -0.53727170109806
C         1.37170937543876   -1.33390659745127   -0.62654024271510
C         2.03176377339908   -1.74860080642592    0.54862624690410
C         2.88270695786911   -2.84791763522650    0.56281572396756
C         3.20183359449775   -3.48771258132485   -0.62621441949931
C         2.65006127775413   -3.02656574709539   -1.79288316630588
C         1.71994178567125   -1.97832351291759   -1.81680058453158
C         2.60054143889990   -0.81029916307231    2.70313210033313
C         0.18772513674956   -0.86326793036026   -3.27530158161618
H        -0.28861469615986    4.00563679721709   -0.07489895176428
H        -0.43259996830787    5.74879692387469    1.64231180893804
H         1.12141190814095    5.73416308547491    3.55783387276449
H         2.84792819104630    3.97750551365985    3.72206439038128
H         2.99409262232239    2.22871222528778    2.00798744346380
H         0.08190682992700    2.82487938326834   -2.06896556369921
H         1.40028147475855    1.88357564739045   -2.76877629513982
H         1.74960999099612    3.42863324425100   -1.95716689529929
H         3.55014126450000    0.73505495548657    0.31476847832213
H         3.72052360134476    2.23366070919916   -0.62626899084342
H         3.33041735381569    0.69350546585831   -1.43175983973642
H         3.86397904645178   -4.33826282031728   -0.62973908880154
H         2.41151351650922   -1.55049142647293    3.48456801090175
H         2.43375713998953    0.18187559110111    3.11941175611803
H         3.63951062034703   -0.88707550613193    2.37452401220158
H        -0.02429596795508   -0.26709444840582   -2.38159954993400
H        -0.66979517033238   -1.49981371593644   -3.51302023535136
H         0.39834212599133   -0.21160816647841   -4.12463949904696
P        -1.37683690583880   -1.63332020667765    0.37200644086081
C        -1.37044663481070    1.33427749841874    0.62664949224379
C        -1.36524329604490   -2.99204741353951   -0.84352480382917
C        -1.11815389881815   -2.54124458953940    1.94406285585719
C        -3.17328103122197   -1.29450869020162    0.54200163786819
C        -2.03057628275280    1.74834813323442   -0.54872903753470
C        -1.71763146237930    1.98033993977676    1.81629179463169
C        -0.40277195103486   -3.99384768197346   -0.75883675423736
C        -2.24699266456439   -2.99863657466244   -1.91888604721701
H        -0.07831635981302   -2.83015004901053    2.06528922956713
H        -1.39335296920317   -1.88753276750533    2.76965235234241
H        -1.74731546932876   -3.43076544297228    1.95656734014594
H        -3.54958661472341   -0.73316935867087   -0.30841330658774
H        -3.71924317594460   -2.23323326626445    0.63055811667567
H        -3.32655903790045   -0.69465033346106    1.43775167945848
O        -1.70026015374444    0.94980029877243   -1.62162071740161
C        -2.88079096084828    2.84827067944337   -0.56367746143975
O        -1.31161204643631    1.67894280001277    3.07459850037630
C        -2.64670362417567    3.02953811817848    1.79161428221495
C        -0.32337034457270   -4.97718302469353   -1.72708713843447
H         0.29207924658464   -4.00335559852945    0.06736615606290
C        -2.16781449293552   -3.98450060971172   -2.88690898294326
H        -3.00092749307052   -2.22960854121089   -2.00197794097797
C        -2.60152002590879    0.80705023441903   -2.70135900998213
Br       -3.57466057539647    3.71545879839292   -2.14685609722764
C        -3.19879588671840    3.48974740063797    0.62475374191422
C        -0.18848586207991    0.86226050257117    3.27613540233767
Br       -3.07694032118128    3.87587154936344    3.43854042997154
C        -1.20110587491165   -4.97154568648698   -2.79815340537382
H         0.43251313274800   -5.74472252314636   -1.65191584466307
H        -2.85844122926942   -3.97669667339502   -3.71798388481571
H        -2.41304520067527    1.54535328665596   -3.48453245288161
H        -2.43589879847101   -0.18604522293258   -3.11569481554469
H        -3.64008499628657    0.88516835248567   -2.37212412934708
H        -3.86017040334353    4.34090194782352    0.62765654445361
H         0.02569652567223    0.26956745234937    2.38060889632526
H         0.66961072926983    1.49540746641800    3.52053330884533
H        -0.40428458635656    0.20718610362632    4.12160461825806
H        -1.12865064746371   -5.73087424397978   -3.56165688243863

