35
CSD_code = CIXREH | q = 0 | S = 0 | Stoichiometry = C18H10Cl2N4Pd | MND = 4
Pd        0.15574905962484    3.81115588731693    3.13408794916951
Cl        1.11475579442549    1.99952258057828    2.13372860617285
N        -1.59184946590734    3.09812130245710    2.76551760939620
C        -2.23006447262282    3.40113808731521    1.63838593353844
H        -1.70912370754230    4.05918470053693    0.94062169270770
Cl       -0.80612290656115    5.64168676881908    4.10040701377754
N        -3.41853438991195    1.76884459884256    3.46491894718644
C        -3.49360043008884    2.89889019654752    1.37879313754725
H        -4.01692127528935    3.14068488777675    0.46912279293514
N         1.88852038096913    4.61839462999446    3.34453436399936
C        -4.05193007460219    2.07006370120601    2.34925698061559
H        -5.03450123193709    1.63358342130816    2.23302828216971
N         3.80606521193654    4.96253411250872    4.68519102274117
C        -2.21167162114642    2.28670163606218    3.64534414087479
C        -1.48779208354640    2.00123461299595    4.82262830239782
C        -0.91670770228037    1.71083401957329    5.85221529158102
C        -0.22384328281879    1.41088285110008    7.03618193008737
C        -0.76879998331392    0.55539881576784    7.99425439150363
H        -1.73961213868052    0.11851801724788    7.81595485214368
C        -0.06725169409389    0.27729009267472    9.15107662633623
H        -0.49214046663393   -0.38616098608457    9.88910935631028
C         1.18208494796040    0.84669129771068    9.37071255329198
H         1.72172894577076    0.62364601291821   10.27870327697696
C         1.73800327497842    1.69563047764677    8.43371170937984
H         2.70771604006921    2.14132923650057    8.59543070806761
C         1.04555739762872    1.98669963847387    7.25786367436805
C         1.59115639788990    2.84198798524797    6.28696054332542
C         2.03412620480243    3.56980822183866    5.42413034801195
C         2.61747259454529    4.42020647547981    4.46079497827749
C         4.30652307767729    5.74541901431894    3.75071887009446
H         5.27643470929576    6.17323435889943    3.96448193942468
C         3.63144045660681    6.00651448709040    2.56053013103380
H         4.04790771511842    6.64495132333106    1.79975487070142
C         2.39447303461489    5.40637450868173    2.39972105388744
H         1.78785168305917    5.55080302732231    1.50392611997154

