100
CSD_code = CIXSUA | q = 0 | S = 0 | Stoichiometry = C57H33Br3IrN3S3 | MND = 6
Ir        0.00010676626832   10.22812119800151    9.78926485654618
Br       10.74117157726500   11.73038347438922    7.07263455132701
S         3.53863916317656    8.01087298381685   11.41653347230463
N         2.01807427345052   10.60600720662960    8.79452492375171
C         1.19434297375443    9.03682531863922   10.86910985113656
C         4.74070003921700   10.96012001174556    8.15148179134656
C         2.37453584596891   11.43314177477579    7.78245624622942
C         3.73209168828621   11.64783144008205    7.41423504345159
C         4.01725672274118   12.48015210275619    6.31725852731972
H         5.04570953228420   12.61008720853105    6.01494445858383
C         1.01758397612687    8.11545173906659   11.93090904936719
H         0.07017494172392    7.91465418959752   12.39990790919217
C         2.52258749531544    9.08339136946855   10.48628624457147
C         2.97794370502131    9.94137416217233    9.44669739837749
C         1.36871523602124   12.08113000084268    7.03998537490386
H         0.34345148672057   11.89986850439839    7.31318491810787
C         6.98901559370038   10.05656220302613    7.62577121542502
H         6.55738186313549    9.06697824554908    7.60319682057445
C         4.34600716305158   10.09583007632640    9.13482965128033
H         5.07063207856963    9.54607665927201    9.71643468570960
C         3.01424219498923   13.10298730953914    5.62292274830416
H         3.24926538021436   13.73932847006005    4.78312681776860
C         1.67939011405830   12.90350810374444    5.99246388872361
H         0.89112063004004   13.39010222305538    5.43675488546583
C         8.33952548491560   10.22029747229581    7.38321936867288
H         8.96771639832187    9.36750345216338    7.17698029171968
C         6.17333424208112   11.15595378373047    7.88021254530302
C         2.16853673860716    7.50058439660250   12.31568312755013
H         2.30290804817671    6.76732047600421   13.08794418470635
C         6.74088111114406   12.42778063419557    7.91033333508486
H         6.12357317211188   13.28423399693048    8.13795492087239
C         8.87963622480283   11.49496656896483    7.40905888662578
C         8.09199144118900   12.60177689766108    7.67801055689011
H         8.53069722771933   13.58732278813086    7.70607250633964
Br       -6.69171191041744   18.76496779691686    7.08113702004419
S         0.14575416243985   14.40133729022376   11.41666181736433
N        -1.33639423342754   11.78570594604647    8.79310452555035
C         0.43315994736847   11.85867899417824   10.86869831394345
C        -3.01013541787620   13.96282785133545    8.15270530903852
C        -2.23059314957672   11.67970284164618    7.78085349186514
C        -3.09833409772790   12.74607444077828    7.41411916514582
C        -3.96157039311952   12.57575540738065    6.31719245240961
H        -4.59078754254130   13.40002141825673    6.01608877105563
C         1.31898226538114   12.16736410292694   11.93059127297970
H         1.96758018116003   11.44811553953735   12.39948687663304
C        -0.27288527837635   12.98476490357949   10.48604689662295
C        -1.24349356841084   12.94890711553424    9.44638693739663
C        -2.28536650611542   10.48552970561150    7.03669575544364
H        -1.61317950498839    9.68994703363523    7.30849398142158
C        -3.35887776001564   16.36133762556641    7.62987524111186
H        -2.28641987898609   16.48542877762647    7.60692145720294
C        -2.06409238504311   14.05471385177364    9.13572803786839
H        -1.95246310734221   14.95685108530746    9.71819117079952
C        -3.99622688522178   11.39647663139940    5.62136972933073
H        -4.66475860466006   11.28095885261785    4.78163897119398
C        -3.15274916173418   10.34223407894627    5.98920393044887
H        -3.17733385749642    9.41698658083118    5.43218532590342
C        -4.17916686093283   17.44697473195772    7.38896702274126
H        -3.75760242013820   18.41884673475281    7.18362828983995
C        -3.89940945460682   15.10339664485089    7.88313614860774
C         1.27410247127005   13.47141494950124   12.31561774665771
H         1.84120163243233   13.95509092826406   13.08800237251888
C        -5.28418485008277   14.95498577786561    7.91376494326268
H        -5.71436661833697   13.99065436100081    8.14048796466623
C        -5.55261406835602   17.27342186859053    7.41528842709587
C        -6.11364264393232   16.03597576145394    7.68310052876447
H        -7.18616343563556   15.92002942362956    7.71156681564310
Br       -4.05298026983611    0.16751309167439    7.07712722120745
S        -3.68972328399389    8.27006049647246   11.41302496238655
N        -0.68022013070425    8.29159579606182    8.79313073336708
C        -1.62967259684402    9.78875603886886   10.86737703183142
C        -1.73056467598981    5.75453367291220    8.15155987319144
C        -0.14079173543671    7.56956847182588    7.78160287596189
C        -0.63123273456947    6.28534837835907    7.41435853355149
C        -0.05138783648768    5.62221420140975    6.31824722430577
H        -0.45117765917347    4.66551395063403    6.01677323970215
C        -2.34067809430912   10.40210747929657   11.92844628550572
H        -2.04200865940332   11.32326183069418   12.39763134358738
C        -2.25224737025584    8.61468837271635   10.48409067390368
C        -1.73533836431414    7.79154956912538    9.44509721255164
C         0.92222378877992    8.11807698036040    7.03865962219261
H         1.27570010945527    9.09771709936529    7.31069440171138
C        -3.63421860779840    4.25524103846978    7.62616962529875
H        -4.27695162677346    5.12265888685227    7.60223375668037
C        -2.28360909792326    6.52852560113225    9.13381486374765
H        -3.12181786316534    6.17503830201304    9.71521601997628
C         0.98865971879932    6.18071310847791    5.62366405850916
H         1.42352961925429    5.65895861751429    4.78456542344620
C         1.48066242061373    7.43788316017066    5.99194623813175
H         2.29535700329147    7.87837556524902    5.43589173945550
C        -4.16525314050747    3.00257720097782    7.38460002472166
H        -5.21753211469739    2.88283183130803    7.17775285991127
C        -2.27473475700791    4.41466694770038    7.88134358637980
C        -3.44849800205694    9.71201218194488   12.31225834111508
H        -4.15163558222844    9.96185667008450   13.08381263447514
C        -1.45506032037036    3.28875373645606    7.91321883706201
H        -0.40504189063055    3.39727196210781    8.14142854432404
C        -3.32944208731899    1.89902516238270    7.41219349038097
C        -1.97750928109994    2.03046394775717    7.68191495271326
H        -1.34180247242051    1.15893515392354    7.71133200462394

