120
CSD_code = CIXVUB | q = 0 | S = 0 | Stoichiometry = C59H56CoP3Si | MND = 6
Co       15.21380375288360    7.30721125849636    9.54747688222805
P        16.68253026727155    8.76330543449413    8.69808162041168
P        16.70483275958454    5.69697132423648    9.61440222671195
P        15.87429183555588    8.02801979377898   11.52131906072481
Si       13.16455909953987    6.31633969135438   10.02173159647118
C        18.44222847804806    8.62143774051564    9.25481585921125
H        19.02942032547080    8.20223839512433    8.43130211383999
H        18.84076076948667    9.61873618990896    9.45965189268480
C        18.40014266815356    6.25579072729233   10.17401148082565
H        18.63371035502286    5.68054577650193   11.07635865678223
H        19.11832629103432    5.95802430344528    9.40155447349655
C        17.73056298807467    8.23031379190606   11.64752914543423
H        17.91334600342038    9.30236115681611   11.76786449677161
H        18.05306963388226    7.73594123379892   12.56970843677611
C        18.61519329025217    7.73929260800227   10.49479774135578
C        20.07792086107458    7.88489135289426   10.95541379676874
H        20.76137990846736    7.60544058207408   10.15514292298350
H        20.28095189545528    7.24655502963467   11.81372828461282
H        20.29264244904775    8.91349462787609   11.24133260152947
C        16.27291588519268   10.51556427527299    9.04032953871501
C        15.15649374306203   10.98619234653675    8.35003040655570
H        14.63835233648079   10.31500576837280    7.67694153043736
C        14.70878901036091   12.27930010994292    8.52429490324348
H        13.84348158043196   12.62841388514484    7.97998526161474
C        15.36879980445736   13.12739036047967    9.39986504334057
H        15.02205106244718   14.14017963760288    9.54229719340231
C        16.47336240357828   12.66928974271656   10.09352480976881
H        16.99016598806028   13.32260784906742   10.78203591758531
C        16.92373786092504   11.37187869425771    9.91743885504679
H        17.78727758817229   11.05014584770890   10.48191893898592
C        16.94816757104934    9.01030799464784    6.89932293183223
C        16.21245353272264    8.29364995036285    5.96616273479011
H        15.48776254776083    7.56855324769465    6.31070521519166
C        16.41319061688660    8.49569351439366    4.61198793570177
H        15.83832298892787    7.92950847833302    3.89384159835871
C        17.34939818105420    9.41948193699130    4.18106204633769
H        17.50999634327266    9.57755935473073    3.12457796068218
C        18.07866169064314   10.14812629312193    5.10801960345492
H        18.80363205389463   10.87650263282593    4.77371147306430
C        17.87790441779857    9.94944069849119    6.46053071592502
H        18.43837478014321   10.53127968774071    7.17976666022442
C        17.14004590525484    4.95686044138344    7.99425815914832
C        16.74469740092917    3.66907257163261    7.64388090971094
H        16.21636040944212    3.05240285466479    8.35555403752482
C        17.02438421391553    3.17127814331411    6.38397888298010
H        16.71627799097059    2.16782991488864    6.12756003900943
C        17.69029393215816    3.94930323212080    5.45180184535113
H        17.90302699764933    3.55718505134881    4.46816742443016
C        18.07520895697609    5.23621345341700    5.78682288656341
H        18.58477169188085    5.85989105394784    5.06594585277975
C        17.79886521979904    5.73126522093049    7.04693408753912
H        18.08524884738948    6.74323963847299    7.29246556091939
C        16.64224454291719    4.14204218889164   10.58585146447123
C        17.69419338121263    3.22886093248309   10.53151705998274
H        18.55210511771326    3.42780149250674    9.90299371074256
C        17.63714170292123    2.06000142406963   11.26544183290547
H        18.45507816346916    1.35525923164909   11.21618979640833
C        16.53258666314826    1.78592546345012   12.05819638357628
H        16.49070298170027    0.86688730782402   12.62427123203839
C        15.48897625768918    2.69168323722279   12.12122366469610
H        14.62674173190423    2.48675838636446   12.73857762425154
C        15.54889472904811    3.86525446718057   11.39098313902096
H        14.74927996475807    4.58586396670585   11.44372741905116
C        15.61699528152145    7.15148696133731   13.11352647414018
C        16.36389378667265    6.01416532773514   13.40419983667077
H        17.08562463282054    5.64743438005778   12.68822664355898
C        16.19545063218299    5.34072066009345   14.59825932634633
H        16.78107673429740    4.45513059816895   14.80114687117293
C        15.28356618388639    5.80573234906604   15.53090001065268
H        15.16080297532453    5.29090698653196   16.47249481831331
C        14.52823592336061    6.93023380339681   15.24725608667543
H        13.81152022730714    7.29714360799371   15.96689416386053
C        14.67788383425203    7.58926758558524   14.04045895622766
H        14.06153510405619    8.44895695233151   13.82326152083499
C        15.35464670922099    9.69015033072361   12.09937014053594
C        14.25869084140528   10.32061787105751   11.52780956050798
H        13.72939909358238    9.83277213193534   10.72270715133429
C        13.84798262412623   11.56473137769423   11.97189683182959
H        12.99561814147101   12.04284712131840   11.51217845130095
C        14.52822526867556   12.19320289161075   12.99905930905542
H        14.21549178072365   13.16804257246678   13.34361564068399
C        15.60737375437288   11.56049246559340   13.59548630379311
H        16.13036833010156   12.03777825368897   14.41224898800699
C        16.01325664159854   10.31504105361517   13.15728668135094
H        16.83541909344136    9.82000689964003   13.65643455239059
C        12.94305340460033    4.44230584147711    9.64156573692608
C        12.07758670504316    3.62793096580251   10.36286189927519
H        11.53171327440790    4.03622374713187   11.20015930881136
C        11.89438362185892    2.29890935341841   10.02514089583137
H        11.22096765105918    1.68348937183346   10.60618784702623
C        12.56347114179819    1.75688129011833    8.94161096151850
H        12.42177023841620    0.71826317802474    8.67718305805696
C        13.40410848820883    2.56129244647310    8.19218542929215
H        13.91438673054865    2.15524500936591    7.32914746119139
C        13.58648706398038    3.88604048246275    8.54369992141108
H        14.23806206407107    4.51131360953470    7.94987824135450
C        11.67802068453032    6.93796431888776    8.95831514246547
C        10.38769404955829    6.57411814036336    9.33136142405927
H        10.24248173954411    5.98094596949496   10.22228550032799
C         9.28679721817154    6.96187451846208    8.59062357358223
H         8.29429110063163    6.66810219328509    8.90394273039870
C         9.45342383151800    7.72536407115703    7.44731199742886
H         8.59472880967339    8.03035831940001    6.86545297053352
C        10.72876459809333    8.09321899083233    7.05700879144227
H        10.87015924481758    8.68826353509683    6.16468556450488
C        11.82330249507543    7.70012855061937    7.80735075671238
H        12.81429301721194    7.99481585368595    7.49416429094761
C        12.45362698244408    6.63378813597097   11.77901956424728
C        12.52147368486779    5.72415618944077   12.82667985249011
H        13.07710879141420    4.80505725746119   12.71199246278594
C        11.87982650446538    5.96104931910022   14.03017765525920
H        11.92855700644089    5.22268306232901   14.81906150187766
C        11.17940320544311    7.13783979030577   14.22479108195669
H        10.67429683012235    7.32408562114062   15.16238439416191
C        11.13237808837079    8.07552137235629   13.20647647102030
H        10.59588225662554    9.00354801612076   13.35001721635481
C        11.75551242858890    7.81708960261305   12.00048449913163
H        11.68301416002975    8.54014150354183   11.20148756555402
H        14.29256494798539    8.38180167457868    9.40595535274206
H        14.84295792480128    6.86726351719694    8.23921298335762

