115
CSD_code = CIXYIS | q = 1 | S = 0 | Stoichiometry = C43H66Cl2N2PRu(1+) | MND = 4
Ru       15.35939469422997   14.55206897687118    3.45313720305341
Cl       15.25849419477039   16.50807637005238    2.34299861284200
Cl       16.12795416364153   13.45320577940165    5.24020702857737
P        16.66433322289185   12.99246446491349    1.02716383577513
N        12.56555059461737   13.54522337657746    4.25609139094414
N        13.19412962440202   15.44026623676169    5.09623491126037
C        13.50892625592802   14.47686792801562    4.23923935849845
C        11.91321544651033   15.21675839669230    5.75962460036285
H        11.21712327094616   16.02457318660835    5.51807657391996
H        12.05114756928880   15.19549858620366    6.84380647684460
C        11.48057144739904   13.86287137354465    5.18804878037603
H        11.40774947987967   13.08899703438170    5.95574717987998
H        10.52668576030514   13.90674646746389    4.65524328288471
C        13.92216927423162   16.65418767719801    5.28020688126397
C        14.88186934384743   16.75284209087183    6.29100097587179
C        15.59185618025825   17.94384021508586    6.41122781621501
H        16.34831008857391   18.01840614397770    7.17908382250176
C        15.33472476201941   19.03167696242391    5.59392473242469
C        14.31619703811563   18.93076306787377    4.65172511696416
H        14.08303188078878   19.78414409751268    4.03222181005593
C        13.59720362356384   17.76097483096886    4.48136439803150
C        15.09868438965062   15.67303719263739    7.30923817201438
H        14.72203997378951   16.01675322379344    8.27336855070884
H        16.15966200644187   15.46147643480660    7.42941042883516
H        14.59001868141513   14.74823621716591    7.04969415509812
C        16.11707383500616   20.29996249658446    5.72116187869145
H        16.72646318918114   20.29666124162019    6.62078426941027
H        15.44983734704454   21.15889467356740    5.74937519606572
H        16.77409340072191   20.42003771877880    4.85974270974967
C        12.48556335281047   17.69836891633644    3.47638469067449
H        11.53679946753298   17.94510295332953    3.95518903901411
H        12.40659290765070   16.70990746007634    3.02740664287093
H        12.65660075397379   18.42154952432933    2.68364106704638
C        12.49712702772457   12.40403696024851    3.41121914959093
C        12.95173439450511   11.16761888989789    3.88058915075325
C        12.92936866778728   10.09225338651570    3.00085731033159
H        13.26988578392053    9.12411698047957    3.33101078531069
C        12.46285123186770   10.24100199678002    1.70859843573694
H        12.46250638736653    9.39596954896658    1.03660538407639
C        11.95897134456995   11.45642355891885    1.28304631156523
H        11.55694969434829   11.54422376408164    0.28593917660008
C        11.95145052537103   12.55683396970368    2.13104148472881
C        13.34406227673251   10.97553635978008    5.32670253391874
H        13.48595669854830   11.95821551430424    5.78552489493905
C        12.19831897679789   10.24588201534230    6.03995025593355
H        11.24646211273043   10.74742200504564    5.87630773959577
H        12.38904792510018   10.19985691285752    7.10925191494305
H        12.10963774387405    9.22983744409692    5.66400783618427
C        14.64822037399429   10.20420086101727    5.51779750796384
H        14.61274599661953    9.22636331276895    5.04727109833057
H        14.82798240635625   10.06071127820297    6.58034765319367
H        15.48337427442132   10.76539483940335    5.10955171691690
C        11.35861515296425   13.87168382174407    1.67759838308315
H        11.27370871144690   14.53749593305437    2.53982293430880
C         9.95386196361094   13.67327165330625    1.10269805799745
H         9.98503189068749   13.14296199533501    0.15533600355041
H         9.48553511613775   14.63928068773123    0.93068588067476
H         9.33293534242128   13.10593182422165    1.79239224169368
C        12.26975626319398   14.56172754689684    0.66067523823106
H        13.23679757537941   14.78602926688512    1.11595115590251
H        11.81805634207168   15.49333368516094    0.32873848344112
H        12.42029597919288   13.92691271508947   -0.20891088090783
C        15.25399602858502   13.27726199710180    2.06095812618332
H        14.42592739440059   12.61739971849550    1.79909544023981
C        17.55124484510225   11.44747424413033    1.55548218041408
H        18.28843757596253   11.79094658376322    2.29487570050856
C        16.58149340199036   10.50375405921084    2.26758022535502
H        16.06797443357461   11.04791733574827    3.06556125691952
H        15.82213649519011   10.14393611225460    1.56992884760775
C        17.34859451877903    9.31478061242910    2.83993290976131
H        18.05329403799745    9.66696205283295    3.59597188223320
H        16.65264062976917    8.63235511890070    3.32821801138646
C        18.10689068588743    8.58458984590716    1.73512192340705
H        18.67180356936638    7.75484759770660    2.16038425822013
H        17.39518119147735    8.17027339874580    1.01777103676986
C        19.05583464031855    9.53807305230917    1.01519853374927
H        19.57628450022591    9.01212032221619    0.21383004225938
H        19.80792267100905    9.90299989717760    1.71796330774361
C        18.28474580222787   10.72172766794142    0.42924497990554
H        17.56752424498843   10.34450814222260   -0.30178450131233
H        18.97574954378907   11.39205208009921   -0.08555819323797
C        16.16757510206375   12.86779052769805   -0.75188810998498
H        17.05068505960029   12.52703946342710   -1.30568703090129
C        15.04317504703779   11.84350053686942   -0.91620057259237
H        15.35376620292756   10.86715073547820   -0.53793936484549
H        14.17118952576028   12.16352209979877   -0.34274111856978
C        14.65176687257464   11.72589082607752   -2.38770188294456
H        15.50635007861418   11.37334737717863   -2.96923383824553
H        13.85142469910219   10.99209126823940   -2.49318514631464
C        14.19695225447880   13.07992518151166   -2.92100972855872
H        13.93443781229067   12.99409534248515   -3.97566127096355
H        13.30579318498381   13.40604777893749   -2.38116656462500
C        15.30335878292008   14.11428919079520   -2.74833200869475
H        14.96230129291291   15.08753194896626   -3.10270284836340
H        16.16560504495313   13.82286344614591   -3.35245054331822
C        15.73035417993031   14.23282906933846   -1.28534773629491
H        16.54964098819049   14.95056461795111   -1.22041449636252
H        14.90090115691113   14.61066613682655   -0.68259911368488
C        17.80860919397588   14.42934863819658    1.21460412248769
H        17.24286561684862   15.29260926108391    0.83186736486566
C        18.11835972785002   14.69559488937377    2.68487588157451
H        18.64745950567053   13.85035452249595    3.13536784369045
H        17.16337784902893   14.84511266607955    3.24793901559281
C        18.95922531285589   15.96095109168282    2.82145630294521
H        18.38606241739470   16.81607287317880    2.45408316928202
H        19.19110552574570   16.13822060172972    3.87341701980792
C        20.25116104377611   15.82767583903108    2.01864210946349
H        20.85470609130892   15.01536173660589    2.43002821737569
H        20.83014524669134   16.74745021209327    2.10325295496189
C        19.94291505580245   15.54263291826123    0.55211034812348
H        20.87166303826899   15.42868210507632   -0.00820525810624
H        19.39454301799124   16.38462020884278    0.12446235745933
C        19.10607729231510   14.27054361825823    0.42069013926218
H        19.67951838698643   13.42798970921156    0.81439744908117
H        18.89003678042502   14.07798367761945   -0.63258305802969

