36
CSD_code = CIXYUF | q = 1 | S = 0 | Stoichiometry = C11H16N4O4Re(1+) | MND = 6
Re        2.79729007482615    1.34753702137715    8.19903556357144
O         4.39230384184726    3.08267869127507   10.20041736475059
O         1.73471041760412   -0.40776825713599   10.51390157997404
O         5.19734303179572   -0.56597934038904    7.81208617606283
O         0.42059943969081    6.73758754989403    8.73374408495041
H         0.57679044223526    6.67717886789995    9.68272805422771
N         1.10645705389159    2.65368358927103    8.20328566920016
N        -0.15493985666315    2.27977581267142    7.97405376258240
N         1.60418870100946    0.29856126960863    6.46108268252443
H         1.76442530268205   -0.69590592999596    6.63222354374641
N         3.39562420672145    2.54166867007288    6.33572629164312
H         3.34455069144617    3.55224551261142    6.47455907759942
H         4.37424868098356    2.34289800191892    6.11649641330248
C         3.80948030820681    2.42284323303815    9.47922152942269
C         2.13395366620899    0.24636932588293    9.66766286867586
C         4.31821238235658    0.13985938459500    7.97386381558528
C         1.08788251744715    3.96946002867405    8.38367336610411
H         1.98154125325871    4.52324554413411    8.60344242075420
C        -0.21456351701343    4.46182311450479    8.26144167053142
C        -0.98022774008421    3.34232616294841    7.99644689543800
H        -2.03411461995477    3.24596896570218    7.83397903721729
C        -0.63861848005407    5.89687473396144    8.36541345475489
H        -0.97101618626989    6.24625966652577    7.38084660794325
H        -1.49026926854989    5.98165198277167    9.05353965939727
C        -0.49421684122089    0.91342796174015    7.67335094828810
H        -1.58012699257932    0.84085225023899    7.60042035335887
H        -0.15189595597511    0.26067215972763    8.48469390440071
C         0.14312512196130    0.48380589963859    6.34507897746917
H        -0.33764910690212   -0.43909513278608    6.00649558509864
H        -0.06525509452635    1.25884810201034    5.60146491712612
C         2.30927568339752    0.65668647905005    5.21476244270135
H         3.27105008546207    0.13511922999403    5.19741258907348
H         1.73945185642874    0.35057467685580    4.33042073972079
C         2.56256779298563    2.16602052908718    5.18003902020296
H         3.03605223157290    2.43501945414037    4.23028341227352
H         1.61336887577345    2.70722478848453    5.24440552032676

