57
CSD_code = CIXZIV | q = 0 | S = 0 | Stoichiometry = C26H23N3O4Zn | MND = 5
Zn        0.79646086479885    3.03936665550871   11.28335383719344
O        -0.21839536052548    2.44976099779103    9.67437280547314
O         1.91317216765591    1.97565200237653    9.61363352235923
O        -0.60800460377807    3.62700298220134   12.48026614628149
N         2.66909908089751    3.24582753430042   12.05303989932011
O         1.02620078292949    4.63011550866230   13.57641173182229
N         1.41267841583574    4.93461431594906   10.54842240856433
N         1.10767371564609    1.19645418532750   12.33461123276106
C         3.30635140534772    4.38910834043960   11.86746547933055
C         6.29686198005327    3.90168700676506   14.09472285846140
C         4.34506500891489    2.47556766641729   13.52388059058777
H         4.72941789158829    1.72794736332051   14.19959391338369
C         2.59938308848497    5.34370996225009   10.99864651334145
C         3.14883961158398    2.29485066283490   12.83403722010635
C         4.51416956811603    4.64043267249086   12.50841486962931
H         5.05260696287674    5.56213845508259   12.36164639560210
C         3.09507100266209    6.60492577106724   10.67374914470721
H         4.05658350397586    6.93185369940510   11.03497324860660
C         5.03440304826876    3.67463222715307   13.36806207962784
C         2.30316813720039    1.09281666610419   12.91668746093715
C         6.47649226675146    5.00736378427218   14.93088381669066
C         0.78469569778455    1.95059691066470    9.10185968794715
C         0.68228986057738    5.72996343234660    9.79167094638172
H        -0.26827694470950    5.32605521685206    9.47183169572891
C         7.32445333209954    2.97366333888732   13.94275322688897
H         7.17006735529682    2.12368397823134   13.29342844857640
C         2.69851211893956   -0.08623252636919   13.54618942195336
H         3.67139100345265   -0.16983863242168   14.00323871222078
C         2.33244055100316    7.44259351754346    9.87764282220861
H         2.69596109946559    8.42590932161366    9.61667642498526
C         1.09878619027546    7.00231302608208    9.42641798447167
H         0.47362167701236    7.62780264753112    8.80924265351280
C        -0.16213055630057    4.34624716647070   13.42185357980687
C         0.27269476981344    0.17643496899184   12.35574549826713
H        -0.67766985855771    0.34124414341464   11.86778650470145
C         1.82577999849535   -1.16094697552953   13.56680277835373
H         2.11195936140203   -2.08580986781406   14.04615931982026
C         5.39006336106448    6.01230758066683   15.17358022529535
H         5.53168721766805    6.88512362019596   14.53539903406552
H         5.42379281752300    6.35436133874141   16.20608249107719
H         4.40454841381151    5.59980744259032   14.97264914330433
C         0.58512860086665   -1.03150169892956   12.96358836030924
H        -0.12216637324335   -1.84551644547850   12.96124013341399
C         8.53462084544229    3.14388964141053   14.58625239096320
H         9.32586191864228    2.42181484889076   14.45164598874552
C         7.69851212977741    5.15688971087899   15.57686888153651
H         7.84353223288241    6.00635941554376   16.22909330194384
C         0.57524244039650    1.30783210615991    7.74048827939174
H        -0.21443813395876    0.56457335529274    7.81100706518054
H         1.49741660178178    0.84651443237643    7.40052352573850
H         0.26152114480272    2.07109231402422    7.03259296968440
C         8.72276274728874    4.24456391208498   15.40535580856929
H         9.66380179553400    4.38734906544380   15.91533542856895
C        -1.20366807610939    4.87171968602888   14.40891193442943
H        -1.15972623786171    5.95798599032151   14.43048751256877
H        -0.97034254679593    4.50165857368214   15.40451769816029
H        -2.19412509484417    4.54326698386090   14.11130494643966

