73
CSD_code = CIXZAM | q = 0 | S = 0 | Stoichiometry = C28H40Br2N2Ni | MND = 4
Ni        2.53298891453338    5.23252785932817    3.70999985712454
Br        4.29195096362621    3.88300323806551    3.92384505203595
Br        3.64521686307590    6.53917720878164    2.28343850616514
N         1.14924466501029    6.55503355436633    4.14090441981771
C         0.08140836962412    6.04563031076560    4.65396341500125
C        -1.04405574392582    6.83831282652364    5.23587547226816
H        -0.78961897990293    7.89552184081139    5.26784819679789
H        -1.26539516097775    6.49403736464386    6.24566586508905
H        -1.94378735463449    6.71020799381548    4.63434615807700
C         1.37001817043360    7.94309472821155    4.10163413473574
C         2.34613722116130    8.47250191960241    4.96112834598319
C         2.55841176766884    9.84079762815616    4.94984154828193
H         3.28708086506649   10.27354234442212    5.61540049503618
C         1.85644865053854   10.65973161685701    4.08463590588215
H         2.03724086091395   11.72392752028181    4.08551962282854
C         0.94729154645356   10.11533961496064    3.19967339285726
H         0.43655521720524   10.75849462353183    2.50052345462783
C         0.68278132718606    8.75349432634121    3.18984254088124
C         3.12483923679941    7.55862999290459    5.88189538582517
H         3.18215906993124    6.55098398524748    5.41079126650257
C         2.39967235650103    7.40503006052906    7.22136334801657
H         2.30985329194324    8.37280102290043    7.71158477364698
H         2.95655715302056    6.73627580594800    7.87437517523881
H         1.39888239590535    6.99735590780787    7.08477086018325
C         4.56516983194202    8.01833727924907    6.09421891115709
H         5.03409270509994    8.23858022844391    5.13821039780566
H         5.13267957810404    7.22666368841439    6.57865107358876
H         4.61200281146356    8.90184772812565    6.72648744010703
C        -0.25020235296083    8.16921767100986    2.15414389760967
H        -0.40510950406351    7.10526355619398    2.36344579053173
C        -1.61730228891329    8.85690250475167    2.15948380632553
H        -2.05426833032814    8.85945426586536    3.15648872832695
H        -2.29588227417436    8.33743206685193    1.48589582521847
H        -1.53429278856232    9.88656599552163    1.82300458403175
C         0.40233036727578    8.27671913770752    0.77264389294521
H         0.55334047574361    9.31781967821350    0.50028552233165
H        -0.23112065998922    7.80970826135400    0.02142151173906
H         1.37087511828638    7.78269932880995    0.77196485256283
N         1.17174433422814    4.01197028067892    4.43519698282144
C         0.04945324564820    4.59286637828337    4.69349052904191
C        -1.21361569819437    3.87549115500154    5.04811495783562
H        -1.06000215892117    2.79845245681724    5.03626851581415
H        -1.55161534030167    4.17467076222611    6.03993670840075
H        -2.00297904267119    4.13017757481360    4.34079416267481
C         1.30279192844591    2.61050663483469    4.44606889301154
C         1.88517240536763    2.00909390951276    5.56858833909269
C         2.05287805594175    0.63334923427874    5.56223146576410
H         2.48541532233369    0.14563647288071    6.42046852527215
C         1.68459211678517   -0.11815516398970    4.46403205934549
H         1.83471636591761   -1.18712711766346    4.46713475733213
C         1.13137359688348    0.49312368278467    3.35370005105671
H         0.86469486777556   -0.10993418066757    2.50167581702689
C         0.91597795711352    1.86164763277913    3.32331474591710
C         2.28210487785651    2.84302956793283    6.76526524644199
H         2.36234770870820    3.88979247656469    6.44542400864285
C         1.20321486844412    2.75286861959774    7.84851848175071
H         1.09457628796716    1.72449403436380    8.18636608622430
H         1.47644358272915    3.36921105203410    8.70244861742495
H         0.23880911095039    3.09089400915033    7.47405185493224
C         3.64120300531159    2.43372152029312    7.33071947619935
H         4.38409114320920    2.41157406667515    6.53777522706787
H         3.95696389941728    3.15519324519301    8.08119339237791
H         3.59710621086326    1.45611717508050    7.80286610549177
C         0.34254063813653    2.55649556152842    2.10542540745433
H        -0.32891673877078    3.35703713851420    2.44222977800983
C        -0.47726037835319    1.62997367348071    1.20898100757258
H        -1.21614583114325    1.08002447285839    1.78878272928622
H        -0.99976546948720    2.22001315242369    0.45857436633712
H         0.16284648441800    0.92265699595927    0.68839865410730
C         1.47704014332452    3.19657714232241    1.29843782617894
H         2.22336398382308    2.45226596392463    1.03086290813424
H         1.09079819754999    3.65541868299685    0.39092434091437
H         1.97734596259614    3.98510705120756    1.88352454786780

