84
CSD_code = CIYBIV | q = 0 | S = 0 | Stoichiometry = C28H53P2Rh | MND = 5
Rh        0.89386375777345    3.28682504330340    2.27191883306133
P         0.12501063523803    1.33752528953590    3.05725282472335
P         1.12064040777045    2.62247850016448    0.14718964117907
C         0.85586345072263    4.35568893652286    4.10584696940759
C         1.91075654154554    4.84776495425342    3.30529106201803
C         1.56368157736669    5.28406016368855    2.00755774183224
C         3.34822225858806    4.69174547990247    3.72180107562052
C         1.17377000656110    0.48232136645076    4.32591689052561
C         2.59825123517014    0.48078731740418    3.77149340733807
C         3.57196032874616   -0.14605510640324    4.76161998505235
C         3.13360309873755   -1.56887870479015    5.09712817717454
C         1.71516172240095   -1.56954736293121    5.65939697890953
C         0.73640168441872   -0.93770636695182    4.67071133498571
C        -1.60743224922780    1.20509133164979    3.72428257768323
C        -1.74842250664024    1.90340946500965    5.07305598870723
C        -3.20647807587470    1.92418742536705    5.52464546690929
C        -4.08063284038797    2.61790241972763    4.48482141437794
C        -3.96002195071017    1.90959084295059    3.13938802151934
C        -2.50493073056870    1.87872381123490    2.68774944798635
C         2.82602104150710    2.70227574311955   -0.57868264352540
C         2.97145604485895    2.05558102822154   -1.95246486455741
C         4.42751937520534    2.10767259345136   -2.41279764484395
C         5.34383968505586    1.42565120887988   -1.40125199744315
C         5.20292407567358    2.08068109724961   -0.03005309683064
C         3.75159486438321    2.02241083322594    0.43009571032123
C         0.02195534179434    3.33068246864865   -1.17673242584949
C        -1.40154514692139    3.23767785349040   -0.63060735246257
C        -2.41202234711628    3.85657946558006   -1.58876030129975
C        -2.04815411325004    5.31038570365157   -1.87280344331672
C        -0.63689566367084    5.39772477022420   -2.44510773974105
C         0.37319219001019    4.78388512837241   -1.47914579774903
H         0.00972324773787    0.22611434326694    2.19573424718507
H         0.88093551195888    1.27633824762868   -0.20146867153986
H         3.16359597636608   -2.17857726404592    4.19100646453672
H        -1.38294260347144    2.92794175122160    4.97692381119879
H         2.61181003799461   -0.08509974299420    2.83520937747363
H        -2.14044669020142    2.90272379140488    2.53763358756341
H        -1.88691480689262    0.14914838092591    3.82011235747298
H        -4.57025706681934    2.41960252444388    2.39069972894996
H         5.52392254421472    3.12348506835379   -0.09278479169326
H        -2.41579900683157    1.35221745172800    1.73350206222174
H         3.09946453511495    3.76335758641157   -0.64082408786140
H        -3.55787424270596    0.89847059790718    5.66528046739017
H         3.59534197885894    0.45044406827449    5.67707229806727
H        -4.33299012904007    0.88645111519316    3.23420714049550
H         3.82046774007550   -2.01189255563683    5.82161329096048
H        -1.13990246309938    1.39725597034853    5.82614327675423
H         4.73162625894247    3.15116005822266   -2.52824598334397
H         1.15410029939152    1.10363059291442    5.23042261647919
H        -5.12194818791654    2.62258829889101    4.81444405532450
H         3.63235177843628    2.50939999446165    1.40457059617860
H         5.84571777319178    1.57511049947154    0.69402943590789
H        -3.28838352948738    2.43919617476849    6.48460955784085
H        -0.26495085062896   -0.93568266318937    5.10558155193754
H         5.07617143417270    0.36906864155164   -1.32557140117639
H        -1.43075818098553    3.76403278180275    0.33161793320727
H         3.44459472577421    0.97841389886952    0.54300471839165
H         2.35938379336366    5.64266354263200    1.36039489530029
H        -3.75803424110220    3.65584472026900    4.37638223591826
H        -0.09982994013590    4.88417981855108    4.06823045091277
H        -2.76369681870155    5.74620678050780   -2.57357024082412
H         0.10459439122819    2.72846936974819   -2.08917253554479
H         4.52292926856592    1.62321668346498   -3.38738582036542
H         2.34372918055472    2.56630646691246   -2.68518469007875
H         3.47819744842407    3.85081859034838    4.40286750604625
H         2.88873126537733    1.51176995711667    3.53886181124368
H         3.66202539192757    5.59795009541886    4.24425333706539
H         6.38044718310278    1.48486186463107   -1.74023947027894
H         4.00204057151079    4.55856503682412    2.86012097033678
H        -1.65007983855169    2.18936165690395   -0.44246873206062
H         4.58005444650229   -0.15437007787503    4.34121753729558
H         1.10011354568256    3.98824770933359    5.09890591780533
H         1.40384801972842   -2.59267117028125    5.88275089908190
H        -2.09698796533124    5.88252355301386   -0.94360066293598
H         1.37590290957749    4.84893482157873   -1.90811755300357
H        -3.41474916343031    3.79771269961877   -1.15964575315443
H         2.64465117848492    1.01371573922044   -1.89514910029469
H         0.63261628095739    5.84433023557201    1.89185579876387
H         0.36985140073210    5.34628614210900   -0.54292252411576
H         0.70624468555727   -1.53592589550177    3.75597721476719
H         1.69796536167939   -1.00414096594725    6.59461231534304
H        -0.37638858039820    6.44094041838231   -2.63837159764183
H        -0.59983888986149    4.86263114714917   -3.39780650061395
H        -2.41593066875589    3.29444874789401   -2.52627559059980

