51
CSD_code = CIYFEX | q = 0 | S = 0 | Stoichiometry = C16H28Cl2N2O2Zn | MND = 5
Zn        7.20318305903161    3.35676105688233    6.31092133113175
Cl        6.28854182266562    1.41830225623850    6.96300433024721
Cl        8.33874116856210    4.17357706557016    4.60266563317036
O         7.19518797286009    4.54710664110106    8.04678088761500
C         7.83602867005032    4.00827888683880    8.94514022452630
C         8.79073512931532    2.92998535559152    8.80779802608489
C         9.26736310734356    2.64504964582625   10.21702753661984
H         9.71927186798139    1.67810949179016   10.41070631420278
C        10.16967268935629    3.84671818198825   10.56475377173553
H        10.91902777932165    4.01615751383607    9.79112538947049
H        10.69224953987464    3.68039758739649   11.50609340946743
C         9.16928667206750    5.01296826905041   10.66079677707843
H         9.36113913801916    5.78214348020261    9.91294014887951
H         9.18605602551285    5.49010610899896   11.63983912684760
C         7.78935727134642    4.34799687122795   10.41872868656279
C         6.60079969414353    5.17715456385744   10.85375631543424
H         6.57714790176683    6.10988625662409   10.29445599253296
H         6.66281961683620    5.40691738345106   11.91486485168124
H         5.67549344765335    4.63894215843156   10.66308047288138
C         7.98119005540285    2.93296010962355   11.02455711333647
C         6.84962890701738    1.96646669842513   10.67645443786249
H         7.10003998025813    0.96564394106197   11.02335946792016
H         6.66299001243659    1.91418875811940    9.60596141839742
H         5.92856821732811    2.26988068680939   11.16862241001238
C         8.17534071480146    2.91376917529285   12.53766089451192
H         7.23076144738114    3.12919196783664   13.03147229759097
H         8.90856283735044    3.63585650933966   12.87957914343576
H         8.49968226735402    1.92333310539532   12.85066297062959
N         9.05471201509311    2.52346711719790    7.61048761309076
N         9.86477232290216    1.59117157566244    7.23286959098749
C         9.91759329948735    1.28349221398261    5.82614388903191
H         9.57172566308996    2.14288773152288    5.25452333729451
H         9.28010373180124    0.42546278797007    5.59637138210438
H        10.94465471966278    1.05850760852783    5.54041162605151
C        10.51396616407880    0.66621209319483    8.13494961000958
H        11.17739668496040    1.19863455862004    8.81883785746406
H        11.10310507952136   -0.03683156291620    7.55253976943937
H         9.76999453877621    0.10808940175194    8.70873284436022
O         5.26285154544650    4.28532612913127    5.73485765905957
C         4.13126171358339    4.14356391419380    6.57696185737413
H         4.25511304167932    3.23613115761216    7.16576101353944
H         3.23418899736416    4.05079113992167    5.94855476761129
C         4.07893769493963    5.42853088257287    7.41368809601308
H         4.59184054336969    5.27910907878305    8.36164979081756
H         3.05242167075859    5.73007803324300    7.61266972573559
C         4.83944784030728    6.44893414215716    6.54783301461980
H         4.22896898489000    7.30921192701410    6.28028877860385
H         5.73125510250684    6.79759369175417    7.06548895306634
C         5.23511897447438    5.63732899688736    5.30773427896599
H         4.47996065541743    5.74073121712461    4.51566354196783
H         6.21554200284780    5.89052643727611    4.90867162292241

