153
CSD_code = CIYGOH | q = 1 | S = 0 | Stoichiometry = C80H60MnO6P4S2(1+) | MND = 6
Mn       10.13413099475821    5.29801252818118    4.90699672391921
C        10.86499041608562    4.14254398013874    6.04552922677368
O        11.32423845990679    3.36550283296996    6.75341207152456
C         9.39870841703832    6.45449500784740    3.77192226763385
O         8.93417349304606    7.23345339492562    3.06963275997745
C         9.61690002059317    6.40256167988623    6.22814203185287
O         9.45042122888563    7.24058891010689    6.98463797700993
C        10.65527477350154    4.19208985451593    3.58787944152016
O        10.82710056377407    3.35114876672265    2.83592310429871
S        12.26202395270327    6.70349752418723    4.91185734628673
O        12.52319058681760    5.54457291672624    2.55077511683167
C        13.63878220155594    7.52144935770108    2.74458863328082
C        12.79377139730941    6.50442995250610    3.28491782680562
P        13.59548943094379    9.06920481331504    3.56181296537346
C        11.90800345095615    9.66257767076344    3.81670571732907
C        11.33073957949170    9.73399005497166    5.07961869500757
H        11.91962038171914    9.49961369814466    5.95454031501432
C         9.99406686064433   10.07094646799168    5.19610534571779
H         9.53795482891447   10.11118078771434    6.17363453334662
C         9.23708660116815   10.33037220795900    4.06431201230179
H         8.19062340210928   10.57713266321623    4.16166782384898
C         9.81279427499694   10.25724936377621    2.80523317591586
H         9.21931486945624   10.44840595761320    1.92358745682085
C        11.14619145537777    9.91683370953998    2.67840503446375
H        11.60301204724807    9.83149835872705    1.69936261658370
C        14.50280810256331    9.03256732446567    5.12140863215912
C        14.53817365522056   10.20718876075873    5.86829733252503
H        13.99057723307234   11.07642172458941    5.52562048175017
C        15.27320437176801   10.24886659627742    7.03784948885549
H        15.29958842404740   11.15363682253632    7.62639498935443
C        15.97827623320573    9.12859738918957    7.45128594320508
H        16.55056831715729    9.16335087335756    8.36603152653504
C        15.95446586422469    7.96709439214023    6.69571391176425
H        16.50767158652291    7.09915574512379    7.02160147167024
C        15.21989440142041    7.91437702326544    5.52483270122237
H        15.17892778172794    7.01152853565109    4.93267878188396
C        14.52261750530440   10.30434393920558    2.62549417284170
C        13.99992714386727   11.53273250563640    2.24488870855052
H        12.96870306512697   11.77639433381603    2.45808416801494
C        14.81302533976174   12.44595184424094    1.59520983841658
H        14.41034253587387   13.40208348666770    1.29646830429149
C        16.13865551497631   12.14090865249442    1.33769468593792
H        16.76768928743932   12.85891301313688    0.83419656077995
C        16.66549456944545   10.92132648387957    1.73616807203283
H        17.70301042090773   10.69164054389222    1.54727715903175
C        15.86162435464039   10.00558576066872    2.38421568188816
H        16.25831754002351    9.05488738102800    2.71612616545276
P        13.83110413163489    6.95171984044909    1.08099092784393
C        12.35736641663239    6.78240484064320    0.04401272327962
C        11.08188698250265    7.06731847528629    0.50932136845269
H        10.93818616937584    7.37265947910637    1.53528232619546
C         9.99952653861452    6.94782703504056   -0.34361620757541
H         9.00657804874908    7.16002858952440    0.02334121628626
C        10.19128433399046    6.55196035696792   -1.65729829044479
H         9.34416402031344    6.45320791148351   -2.31923854625220
C        11.46859406814669    6.28756759596074   -2.12794221473352
H        11.61695435138293    5.98926196550997   -3.15502951498347
C        12.55588937131778    6.40826550009716   -1.28296711163409
H        13.55974822697961    6.21965807300949   -1.64255261081369
C        14.79170853815415    8.15431736407552    0.11334946906776
C        14.12217063739953    9.29442992494271   -0.32362350229171
H        13.07973497928021    9.42859708369923   -0.06478798966984
C        14.77587457846085   10.23643009028833   -1.09210824819665
H        14.25112029361692   11.11812387091172   -1.42764011892862
C        16.10323247033403   10.04065757089558   -1.44079015546198
H        16.61400096004962   10.77225066955502   -2.04794188173412
C        16.76870718327694    8.90111504798021   -1.02310150280971
H        17.79803357179618    8.74131977987236   -1.30708553287319
C        16.11716324726032    7.95597889950906   -0.24917454538366
H        16.63697197389226    7.06160443217778    0.06275115238699
C        14.81121196958216    5.43652353025385    1.12019558567674
C        14.41420962453259    4.27399170528783    0.47370282534761
H        13.48747107445232    4.25531302028142   -0.08044896476020
C        15.19791398435505    3.13869456743525    0.57761717651578
H        14.89210167510644    2.23055072529377    0.08013189287877
C        16.36452594515915    3.15963153846269    1.32531759783050
H        16.97008671549831    2.26934705122970    1.40413526856316
C        16.74890737149034    4.31579777270213    1.98600889737867
H        17.65001816980479    4.32686744091069    2.58128797425956
C        15.97169642734021    5.45497413609822    1.88848969610304
H        16.24821246660336    6.36028219807822    2.41542602359415
S         8.00663003119461    3.89281931904370    4.89919368621539
O         7.73388516750630    5.06060899348065    7.25446768247362
C         6.61817372033188    3.08301396619594    7.06178640345270
C         7.46611392584218    4.09840887336838    6.52262968178398
P         6.42085157759034    3.65550095563635    8.72402064457890
C         5.44247693107460    5.17169434650656    8.67992058045708
C         5.83889381907042    6.33436325364833    9.32656124726668
H         6.76456839610455    6.35279272838834    9.88250584391046
C         5.05616032220772    7.47011540427142    9.22039505311607
H         5.36149789104404    8.37831953117872    9.71808592474636
C         3.89098613686431    7.44945574819084    8.47044466451442
H         3.28591654150821    8.33995338658154    8.39022274188615
C         3.50737978357970    6.29323208060142    7.80941073438550
H         2.60746186633685    6.28240282870945    7.21230763374627
C         4.28371996605271    5.15362501128994    7.90903154577627
H         4.00778517025343    4.24833666414331    7.38177522149871
C         7.89274271091714    3.82502461614499    9.76363554327243
C         7.69343302960572    4.20194372729006   11.08972207934966
H         6.68954255407926    4.39264919665834   11.44807528968989
C         8.78013981546783    4.32262783568338   11.93547778812662
H         8.63132972599976    4.62304556249535   12.96188937495394
C        10.05758861681185    4.05576722831423   11.46656529506937
H        10.90421261659548    4.15492931173226   12.12908701735457
C        10.25007472883176    3.65694850556955   10.15388492801641
H        11.24301293783158    3.44261608857316    9.78816056331596
C         9.16828530506677    3.53712586058165    9.30029490879236
H         9.31246772248063    3.22883914649069    8.27525661056147
C         5.45591137033069    2.45596252802342    9.69115560393605
C         6.12257537360403    1.31596879890200   10.13275225213062
H         7.16602798648585    1.18064530770205    9.87873900086093
C         5.46480837543775    0.37556874122618   10.89973836651657
H         5.98737140140282   -0.50615912424006   11.23858145459819
C         4.13617514815340    0.57296866745307   11.24253637119217
H         3.62211243667219   -0.15742924713546   11.84833979419005
C         3.47362789644419    1.71271789325846   10.82075574129514
H         2.44331937277083    1.87392597631498   11.10036420580556
C         4.12920981989604    2.65613178520691   10.04815019057231
H         3.61143709832664    3.55052287378359    9.73292827896756
P         6.66858593309948    1.53218054923462    6.25042462213883
C         5.73184975537352    0.30171141005677    7.18333965703479
C         6.24645388955692   -0.92928954572238    7.56650263204472
H         7.27748135138420   -1.17816452510489    7.35842895653279
C         5.42555689106901   -1.83829617456202    8.21228345511680
H         5.82187250879775   -2.79642205125584    8.51313906457516
C         4.10021549693996   -1.52657896402899    8.46326835754736
H         3.46515136574978   -2.24131317623020    8.96385434239190
C         3.58139703192484   -0.30453949543355    8.06184099823247
H         2.54408645805354   -0.06965521746493    8.24541938721795
C         4.39307863738244    0.60699912183717    7.41762092321365
H         4.00281578311696    1.55955128057413    7.08340486009818
C         8.35777351237367    0.93658995821254    6.01197159959388
C         8.94842191541245    0.86815591647082    4.75503885994056
H         8.36891507311278    1.10468897718469    3.87446133220193
C        10.28609605452998    0.53078690310318    4.65181436884248
H        10.75248998869459    0.49290317971890    3.67904295797970
C        11.03091880874975    0.26776460421261    5.79080962568779
H        12.07816897825545    0.02047923670417    5.70385797964970
C        10.44187472639394    0.33765606594957    7.04388035039215
H        11.02572107646903    0.14336291586643    7.93125543290085
C         9.10748053436847    0.67880849817513    7.15750907982936
H         8.64054214240642    0.76182445334782    8.13192640525026
C         5.77470949842596    1.56302719736297    4.68299247108993
C         5.75147955361359    0.38756673230977    3.93703797233596
H         6.29982441037815   -0.47886857519141    4.28551711389592
C         5.02751190546866    0.34151132580141    2.76074641489461
H         5.01086755015750   -0.56384102223736    2.17274287261300
C         4.32129052636264    1.45818896354737    2.33970819647028
H         3.75801104159302    1.42017355102740    1.41950931123989
C         4.33261867265680    2.62037128174880    3.09453160061321
H         3.77849624217408    3.48549024551348    2.76276253530523
C         5.05607097149153    2.67747837083765    4.27209267942110
H         5.08744096870092    3.58102996061375    4.86375945396211

