63
CSD_code = CIYHUQ | q = 0 | S = 0 | Stoichiometry = C29H20Cl2F7NO2PTc | MND = 6
Tc        6.78358699322189   13.02838178163345    7.93963806363650
N         6.29920105772162   14.12412958604244    9.18600066165823
F         4.88729382771073   17.47117482223195   13.22146479998818
C         5.94947405838075   14.93963163722095   10.17713798774376
C         5.91860298133481   16.33354766424494    9.96428243993615
H         6.17862555014040   16.70664925681959    8.98613861091561
C         5.56618023552823   17.18135096757980   10.98922911564778
H         5.54037519017498   18.25035359031518   10.84822521491375
C         5.23881896273572   16.64360749411096   12.22666034325366
C         5.25879683492222   15.27596623002033   12.46576451922783
H         5.00116732195201   14.90243980487151   13.44417242354028
C         5.61276712667116   14.42298741256440   11.44546637113270
H         5.64672602614778   13.35433351725947   11.58812108853141
P         4.48568229091385   12.25649484338892    7.62448637144919
C         3.57979909838829   11.52720098073766    9.02341917479915
C         2.19196737986459   11.42013816570996    8.94657393868359
H         1.67429707538375   11.77552841586598    8.06637229222549
C         1.48453427528573   10.85859848121088    9.99254151955363
H         0.40979624338997   10.77471083104155    9.92980806705174
C         2.15294623879904   10.40301455664760   11.11889651125206
H         1.59652711381503    9.96606743794373   11.93455764956498
C         3.53188087529406   10.50433238426391   11.19455572772845
H         4.05400586856363   10.14258522758093   12.06748718359544
C         4.24951532499833   11.06425554414129   10.15014011724965
H         5.32729765744312   11.12928501884653   10.19504363186841
C         3.35697146806081   13.61049435720781    7.15920349858661
C         2.66956759376203   13.67810314872584    5.95474379659564
H         2.78193465815234   12.89879846142930    5.21602928533443
C         1.83279736302215   14.75192654862435    5.69864583774546
H         1.30623887233720   14.80366849323129    4.75735581338898
C         1.67251388176831   15.75522727750014    6.63788294564619
H         1.02561710879732   16.59369226289884    6.42835305816314
C         2.34158501555802   15.68048439239056    7.85006380624043
H         2.21256855076487   16.45607046078255    8.59022247009112
C         3.17725251898338   14.61263046944448    8.11050896062811
H         3.69828944145327   14.53939225476726    9.05576683803586
C         4.36281587789385   11.03417076930531    6.29879229842557
C         3.96609855573795    9.72592793431683    6.55439330660337
H         3.70772689883328    9.42600746474002    7.55970140592488
C         3.91390094876515    8.81016252841117    5.51801688050171
H         3.61055918933459    7.79368797419387    5.71827370433781
C         4.26157384993414    9.18999354231320    4.23272082506144
H         4.22561105104437    8.47033424858865    3.42882732983584
C         4.67545485699494   10.48878341374559    3.97879231419207
H         4.96964994077429   10.77906960963858    2.98129938559845
C         4.73477226004198   11.41018410097352    5.00724537508075
H         5.08700896549349   12.41690369930541    4.82307677222123
O         8.76959116231099   13.47465865555947    7.70028746083510
O         7.14181701355594   11.57485671073760    6.57986317203308
C         8.10305941322463    9.93774816191722    5.17643441113815
C         8.22277410458199   11.16688962842817    6.08665196082990
C         9.47896333557949   11.72929965841374    6.25097313623272
H        10.33680068329830   11.29993760483669    5.76309761411789
C         9.64166076377822   12.86952895290881    7.05377557670645
C        11.07081501081232   13.43342861053327    7.12581339194628
F        11.16067039038286   14.49264748147660    7.92457205489428
F        11.50770616032412   13.80832488895016    5.91279080129556
F        11.93935088245563   12.51585366240333    7.57363799872816
F         7.76931057451328   10.29208886764014    3.92289764128891
F         7.16174727291827    9.09160964765431    5.60237497471916
F         9.24306885764325    9.24413325029731    5.08280732147975
Cl        7.60459338251038   11.39924510149862    9.42164812905378
Cl        6.31429651585647   14.37937005194108    6.10037462134884

