81
CSD_code = CIYHUP | q = 0 | S = 0 | Stoichiometry = C46H30N4Ni | MND = 4
Ni        8.57713673225476    2.51100629900235    2.44412301375085
N         7.93451966494316    2.19594503482150    0.70189135947681
N        10.27066555594312    2.78016354344237    1.56207474813332
N         9.23423434137528    2.30376083577661    4.19692251942874
N         6.86914071042117    2.71054253815991    3.31568910272584
C         8.95279118382709    2.17977976887488   -0.24121821386105
C         8.41690164384981    1.77831520769510   -1.49084503241066
C         7.04828867100017    1.54521674387039   -1.25448025366823
C         6.81253155526729    1.81111788733410    0.10442995841200
H         5.87611825131830    1.73460177881538    0.62445123992186
C        10.19994214653486    2.53767322990661    0.27402514648858
H        11.08093187404767    2.66956341915995   -0.34606264019877
C        11.48228506408811    3.21728165685735    2.10719810745123
C         8.97440606108704    1.56690021998382   -2.78945214533926
C        10.33718196078198    1.74784947277588   -3.05924820120367
H        10.99216458981553    2.05907703878564   -2.26244220263729
C        10.85506065939020    1.53197686466693   -4.31252557336769
H        11.90905116471867    1.67622840347322   -4.49994108444585
C        10.01183373814253    1.12205088995620   -5.33958073032350
H        10.41064047855556    0.94628306072377   -6.32797624740441
C         8.67084922169330    0.93635395172475   -5.09800843199696
H         8.04985597841303    0.61243462673186   -5.91761111879619
C         8.10688344818710    1.14969684180574   -3.83261188678063
C         6.68650912318520    0.95011461846759   -3.58899239121511
C         5.79341602732977    0.56979992883876   -4.60066698413021
H         6.14430955142312    0.41841256287989   -5.60900466084784
C         4.45413558966284    0.38216795478216   -4.34868888399148
H         3.79347513950816    0.08867897799633   -5.15156190042613
C         3.94529655719035    0.56987440614016   -3.06708123433454
H         2.89252165304386    0.42218456909350   -2.87548402425019
C         4.79065747160672    0.94691348371042   -2.05248903410251
H         4.40681975264286    1.10302440134182   -1.05534752969097
C         6.15602713219549    1.14049728412926   -2.29227151162504
C        12.69366538507897    2.60232742276169    1.79120581265947
H        12.70536257316891    1.74991117554961    1.12677610665801
C        13.86863609948211    3.05748245827892    2.36111572079969
H        14.80130858579887    2.56860763848846    2.12033842401399
C        13.85336271066439    4.12685584827183    3.24102764190356
H        14.77352823012835    4.47393233716492    3.68603036043833
C        12.65218585586205    4.74457841863219    3.55531965366497
H        12.63617244350685    5.57704495542979    4.24268294423882
C        11.47372850217236    4.29418386184288    2.99614482795173
H        10.52529927423434    4.75636631417437    3.23928199941424
C         8.21596221175006    2.25440396581351    5.13913036201217
C         8.77241465202269    1.92937467605009    6.40196458458154
C         8.22556484648366    1.72776969174517    7.70667600217151
C         6.85338752817559    1.83215052637212    7.96927681406322
H         6.18226815526215    2.07282613640231    7.16154556250036
C         6.34676904279184    1.62939684914625    9.22932683032364
H         5.28533467603246    1.71393153018476    9.41108938784541
C         7.21135469819319    1.31068033901454   10.27086492715404
H         6.82182362059234    1.14645820260014   11.26493134537739
C         8.56187179539820    1.20024947172922   10.03646799876626
H         9.19977979691342    0.94580291129361   10.86750688488475
C         9.11463269218574    1.40240974435331    8.76429037193154
C        10.54513353658239    1.28190279953296    8.52818672106727
C        11.45709113009052    0.99003436418634    9.55235588982257
H        11.11350218225436    0.85090267935113   10.56495792394513
C        12.80586752184966    0.87544925374813    9.30739818297354
H        13.48104112182533    0.64912594440852   10.11988225680359
C        13.30556364361238    1.05074661648432    8.02045121936120
H        14.36573550940612    0.96008936274967    7.83423337991127
C        12.44146995006132    1.34211090612273    6.99350235621336
H        12.81758153090372    1.48725778555926    5.99177587760827
C        11.06632430142501    1.46091673531062    7.22607604043207
C        10.15372308881410    1.77548245189018    6.17479562328736
C         6.95037335807513    2.51666795911695    4.61132267621654
H         6.06133616844742    2.61558137382650    5.22601355148128
C         5.63694949000712    3.05576322973120    2.75165427380503
C         4.46011490880605    2.38747629103130    3.08920326782453
H         4.49179569471337    1.56456293212728    3.78921566854011
C         3.26507279532018    2.75066713748910    2.49535792105334
H         2.36005772901052    2.21996335406060    2.75259226166508
C         3.22567763558264    3.77985448871225    1.56947874379286
H         2.29057723281020    4.05363336125277    1.10491085824107
C         4.39196245661850    4.45114066141687    1.23416309058388
H         4.36559407276377    5.25272197105283    0.51133003319259
C         5.58997563201469    4.09314113689089    1.81778687258407
H         6.51237932613401    4.59796725177938    1.55941758338141
C        10.37647888417214    2.01124913124443    4.80808231999623
H        11.31762502934998    1.97885884388398    4.29194756411902

