72
CSD_code = CIYJUS | q = 0 | S = 0 | Stoichiometry = C32H29Cl2F4NO2PRe | MND = 6
Re       10.80869245674983    3.78387828181117   22.45918784978583
N         9.62939145844125    5.08132852000955   22.46419936883253
F         5.94020548313221    9.01778995138399   23.14101436298822
C         8.73001162619418    6.05343754220960   22.62273966184646
C         8.08556977368921    6.21435634758060   23.86734698709394
H         8.35256749643417    5.54368849876078   24.66891657534789
C         7.15086967382824    7.20944260987930   24.03766650881391
H         6.64859697977352    7.34864544962958   24.98185093909614
C         6.85691383482712    8.04964015342282   22.97261380873417
C         7.47798759223769    7.92048060483024   21.73893864299919
H         7.22300694153399    8.59807335965593   20.93934917684458
C         8.41048927495463    6.92322732841922   21.56100685671582
H         8.91636120219516    6.78984605061532   20.61755261510170
P         9.10227215802093    2.17871639470894   23.16455142180397
C         7.78138906561203    1.90197338597692   21.94697845597565
C         7.17672222335022    0.65392109867470   21.83067165034617
H         7.51683965207242   -0.17122910637437   22.44071284387167
C         6.14316903306612    0.47045620019664   20.92918003234596
H         5.68063041034420   -0.50098058647666   20.83603268046911
C         5.70574426518931    1.52619080375530   20.14651032359147
H         4.90411133099584    1.37636905079475   19.43890426100440
C         6.30035420208688    2.77218796852368   20.26760571178477
H         5.96290838040372    3.59471535207499   19.65535292715136
C         7.33397901130337    2.96234494561663   21.16573193467576
H         7.82014824407749    3.92343402419620   21.25453902448828
C         8.21119500036591    2.59301834155796   24.69250413214305
C         8.95485967043881    2.98281612308127   25.80546410959900
H        10.03001435661998    3.06363436473787   25.72747722465868
C         8.31175952933210    3.30204378828627   26.98755339537434
H         8.89127703727252    3.60545924016903   27.84614725051771
C         6.92919689097027    3.24062521099755   27.06572074801833
H         6.42808153887698    3.49389722701672   27.98803644716709
C         6.18897328046167    2.86142868665462   25.95804901949368
H         5.11170369722597    2.81883217022547   26.01620719124781
C         6.82372875648180    2.53738625713297   24.77151923851556
H         6.24279244181420    2.24445546888497   23.90957416522456
C         9.82198423492319    0.54027936829769   23.41635802078571
C        10.29476007075244   -0.12088365908778   22.28215304014244
H        10.20463260527467    0.35473748842346   21.31381853235289
C        11.01345280903419   -1.94499306118388   23.66042360849428
H        11.48677360307588   -2.91048456644345   23.75816021652466
C        10.54876942575600   -1.28608114800228   24.78586114132380
H        10.65835368437154   -1.73754489589414   25.76040100787392
C        10.88712738274803   -1.36183889883201   22.40825237358546
H        11.26584625384491   -1.86828343513771   21.53327495733141
C         9.95532168503967   -0.04039550316469   24.67127551004834
H         9.60077121405055    0.47807060254308   25.55025236068695
O        12.05239656050309    2.16646362813424   22.73254208373162
O        12.56634563132531    4.69192406831995   21.72571368098011
C        13.88991810493932    0.74998936474855   23.09262276622098
C        13.31164918492321    2.10172543000196   22.65386448392574
C        14.19238718962375    3.05846560212410   22.20502540930628
H        15.24307260833497    2.83129960842996   22.20206715479058
C        13.75410906373068    4.33254885347258   21.75004073844657
C        14.80685317194499    5.32915288538018   21.26102033981839
C        15.58672480878516    4.71726073585810   20.09311900848420
H        16.13427314362795    3.82883884366775   20.39636685799387
H        14.91070713740618    4.44626678427460   19.28484637325569
H        16.30128176886625    5.44463699993540   19.71407889690836
C        15.74320902457822    5.64752102814848   22.43234494096641
H        16.30305731660165    4.77066712423475   22.74688403680927
H        16.45130561270698    6.41698519796215   22.13264796820199
H        15.17363805164180    6.01488088782356   23.28342688453401
C        14.11040775422502    6.61038855482940   20.79839561269324
H        13.42540772417730    6.39847848048087   19.98051519134852
H        13.53952704795512    7.04893653129741   21.61373410136135
H        14.84804486253427    7.33325263959084   20.45838753077909
F        13.26938287047261    0.26346748583897   24.17234814043899
F        15.19777598369632    0.79977655636290   23.38908264340536
F        13.76266069116952   -0.17603985313907   22.12361718173148
Cl       10.47132434788279    2.93144602646830   20.30461726716886
Cl       11.69683339871659    4.46585313585197   24.54995239400619

