56
CSD_code = CIYJIE | q = 1 | S = 0 | Stoichiometry = C20H26N3NiO6(1+) | MND = 6
Ni        1.25677049711401    4.58389983660005    4.86644262508701
N        -0.36969448932524    5.42824867143492    4.34720627652193
H        -0.14761942708709    6.39214563444743    4.63642744437070
C        -1.58732408178400    5.00923806480057    5.05549257144198
H        -1.74919730884453    3.94313886601221    4.86237870053131
H        -2.44234137646207    5.55796267495161    4.64021811265718
C        -1.55392841125875    5.26100621489968    6.55940394607409
H        -2.56538426080886    5.13594906544165    6.94660424580278
H        -1.24569430778680    6.29117586375064    6.75182408538567
C        -0.62644422219901    4.30910442607498    7.30536409616818
H        -0.77639193925884    4.44549301056898    8.38514742046666
H        -0.86180552644799    3.26934887207831    7.05768391759541
N         0.76581774264755    4.57102543929988    6.95298818052875
H         0.94537960461558    5.57139110027474    7.11359488600991
C         1.70929167554591    3.83528408088003    7.81265553181191
H         1.63564740750511    2.76870853922447    7.57442746409227
H         1.43124391599892    3.96511366801581    8.86721335422710
C         3.10576993071280    4.36189333904600    7.61198676080112
C         3.81697033464120    4.96141202730668    8.64194921226029
H         3.38727388815785    4.99978935480575    9.63147548211697
C         5.06448809443067    5.51665545486576    8.41105535829733
H         5.59992599642286    5.98237945518072    9.22290572933052
C         5.61362844144861    5.49865186060824    7.13991086985057
H         6.57324540666998    5.95314232053096    6.95422931516500
C         4.92153560506900    4.90718037480723    6.09779768659615
H         5.31744649761440    4.90534630445846    5.09421239807606
C         3.67966991224049    4.34023559623824    6.33972104647477
O         2.97204357997426    3.78490987664000    5.27135102666733
C         3.19664461952780    2.39442064239918    5.09254412203483
H         3.09670015229789    1.85903753448772    6.04469784749332
H         4.20712108044606    2.23096960468512    4.69825520726564
C         2.14538107338538    1.87426316193347    4.10914354019248
H         2.28340168943922    0.79322108168971    3.97868599447106
O         0.89576492748590    2.15087163363617    4.71778671484872
H         0.18901081386994    1.85671556647033    4.13079636450911
C         2.25615324920414    2.58965364223723    2.73920119115331
H         3.29835778671895    2.86378960204216    2.55500016149962
H         1.90541605697546    1.93443001774406    1.93002152519136
O         1.41908045801814    3.72652532683805    2.80971019269632
C         1.55569294629092    4.76231575276216    1.90462876283726
C         2.58580307408468    4.91440491443649    0.99523845488144
H         3.36173779826392    4.17358303349127    0.89272607259367
C         2.63082836331671    6.05459671210529    0.20733167214276
H         3.44172414283695    6.17833849064538   -0.49280717857761
C         1.65990793118073    7.03083995651382    0.32320907748051
H         1.71421402671435    7.92461749343487   -0.27683063982945
C         0.60881569542370    6.85602900714273    1.20908160552214
H        -0.16299962542545    7.60744280723034    1.28345119660014
C         0.53715774727370    5.72047660520616    1.99633223945051
C        -0.64390004319538    5.44581055871382    2.89088024348693
H        -1.41016620146062    6.20388128469081    2.68933626505910
H        -1.05686780780029    4.46486171988249    2.62739908338927
N         2.54371999026441    7.05797238427530    4.83914069697620
O         2.65966737946258    6.12576564654146    4.00809415174496
O         1.62197696827097    6.92859618186736    5.67447238004802
O         3.26903252758314    8.00743964365723    4.82310531043067

