78
CSD_code = CIYJUP | q = 0 | S = 0 | Stoichiometry = C27H46IrOP3 | MND = 6
Ir        3.63921500101680    0.32371506787547    3.47258077762009
P         1.54109905236549    1.24307638981966    2.70690914316187
P         5.11644209733522    0.95901597401461    1.70393204310228
P         4.29903279586028    2.09356905860362    4.92246130086672
O         2.54717123620168   -0.83466789634752    1.11753359258408
C         3.08432309830638   -1.34593941440333    2.34029715246607
C         2.11216232842533   -1.83866099777828    0.24150276693983
C         3.32119026580578   -0.86166681004443    5.16681243564097
C         4.55596727408047   -1.00696885323670    4.80360854540163
C         1.25187980197088    1.97719894788642    1.03930663200873
C         0.10634204456479    0.09299901815392    2.76614048187019
C         0.77002106930811    2.61759330555219    3.67933879489259
C         5.54126870885714   -0.24064404070774    0.37611686463050
C         4.79105701217448    2.41810731848747    0.61825680533550
C         6.84222644884240    1.38917533339438    2.20419613686179
C         4.54988283716443    3.84089389651505    4.37108429644382
C         3.26951162388674    2.41634369580574    6.41598767110765
C         5.89590007602849    1.83895348076308    5.80406692525769
C         2.31860628236256   -1.36674089048271    6.05453755911742
C         1.15346493430638   -0.64763058942639    6.33137907794498
C         0.19863795790144   -1.14532867012147    7.19377034544823
C         0.36521426060486   -2.38205958422578    7.80567567179414
C         1.52105554622817   -3.10548761845221    7.52695052659973
C         2.48388881508424   -2.61302668836718    6.67182966274365
C        -0.68334708601188   -2.93802660736812    8.72198563291509
C         5.81482275131685   -1.58720318052761    5.15085757315698
C         6.76928543578576   -1.89930875435357    4.18021579329296
C         7.98524168526437   -2.44904444803358    4.53093104041605
C         8.30023616857740   -2.69666965454917    5.86147500571726
C         7.35380342339746   -2.38317643750665    6.83313241630677
C         6.13301458564192   -1.84222158456784    6.49177297417525
C         9.61642842408308   -3.29888486470081    6.25327451894218
H         2.30999647439163   -1.97230424234361    2.82250378059478
H         3.91299743986305   -2.03514357543275    2.09167405163069
H         1.33390796616830   -2.46471947671320    0.70061385734778
H         1.70360897622966   -1.35432186249211   -0.64745049249503
H         2.94103929667622   -2.49696346017383   -0.05447823565617
H         1.78658124798897    2.92222790161652    0.96630641290212
H         0.18800411913631    2.15186664619931    0.88112692957205
H         1.62752299079795    1.29300549224723    0.28551803347340
H         0.10091789382240   -0.42415787898428    3.72292563232171
H         0.20474310051701   -0.64143417037737    1.97409207067889
H        -0.82703783364436    0.64158239056966    2.63956671377127
H         1.45170691067678    3.46373235915542    3.73200357964744
H         0.56384635943287    2.27460706381154    4.69015927294716
H        -0.16338765192465    2.94241610406657    3.22040209287112
H         5.95898573892366   -1.14063158995777    0.82118474166017
H         6.26495176715929    0.19226866895419   -0.31450031903863
H         4.63548683668667   -0.50524805395600   -0.16102862743845
H         5.66008859547551    2.65130304146227    0.00360779604363
H         4.53730540787152    3.28150540471996    1.22961181454485
H         3.94538896457518    2.18563066379619   -0.02360011214068
H         7.24949092926617    0.58160850712767    2.80857018461674
H         6.83555732202830    2.29811474926971    2.80105773716013
H         7.47431805850867    1.54179077426886    1.32978185632413
H         4.79567051461081    4.48541653209803    5.21446562480315
H         3.64270399549622    4.20553099315913    3.89309071569373
H         5.35712350967608    3.87890468946579    3.64252047054143
H         3.77585005650070    3.10518265084433    7.09199430717621
H         3.09784582176253    1.46876843302403    6.92342065938695
H         2.31018200607424    2.83687025409931    6.12634970393983
H         6.14195041889404    2.70444746818125    6.41903564289891
H         6.69622128442753    1.65544234491248    5.09238704480731
H         5.79803696816945    0.95823500363030    6.43524361719966
H         1.01480517134260    0.31475096994085    5.85943044190339
H        -0.69407138216386   -0.56803870891618    7.39665638466965
H         1.66454810376168   -4.07122736356055    7.99296337385175
H         3.37450526348258   -3.18696801092637    6.46150777337319
H        -1.28568641143115   -2.14108588990631    9.15304838813099
H        -0.22913465037616   -3.51179283666266    9.52751979271658
H        -1.34890399452969   -3.60441075009523    8.17081703192486
H         6.52896394778336   -1.71338705000281    3.14294184037030
H         8.70682877641376   -2.68917625244173    3.76091349756721
H         7.58322014065630   -2.57206427150636    7.87348184411427
H         5.40695880999135   -1.60757003215238    7.25791908317670
H         9.46983744472995   -4.30697779964422    6.64255497722254
H        10.09291853675811   -2.70798718880999    7.03483793059477
H        10.28845880061998   -3.35578254330637    5.40003091784914

