74
CSD_code = CIYKAW | q = 0 | S = 0 | Stoichiometry = C26H43BrIrP3 | MND = 6
Ir        0.39980228176946    0.39789979593216    4.33745036643272
Br        0.56506126696118    1.89918712186136    2.31686020673205
P         0.20476795976112   -0.71030504941006    6.36120484358494
P         0.68718747173088   -1.54934403960218    2.91366233271707
P         2.79240810213063    0.83734914914424    4.52640108010851
C        -1.65596467509976    0.64222078797398    4.21675862896727
C        -2.63554165688982   -0.09685890461771    3.43796445884451
C        -2.90917774629143    2.61464148299553    5.23329892784403
C        -1.76263459572428    1.76724913645695    4.93603029637114
C        -2.65277804325582    0.02217803229283    2.04359799373743
C        -2.78567866071811    3.65362702489512    6.15808946676140
C        -0.35577240838833    2.07520203780663    5.37766013521621
C        -3.54645784990737   -0.70156916800759    1.28215165767885
C        -3.85742630360059    4.46854840813342    6.46282160905652
C        -4.45314769024468   -1.57534172533818    1.87476596812481
C        -5.09178937635313    4.28284794920365    5.85459654933906
C        -4.45102026265478   -1.68223805216557    3.25895526502226
C        -5.21692426343060    3.25441180578406    4.92730542247992
C        -3.56194104199874   -0.95765571193667    4.03005115795161
C        -4.15057380964296    2.43524162141082    4.61946836836350
C        -5.41225030109051   -2.36077368891627    1.03129305250192
C        -6.26294730494742    5.15424204375542    6.19715802759477
C         1.01561019867114   -2.35469707930169    6.53583799814562
C        -1.45992916994721   -1.13773452310991    6.99411576820844
C         0.87794392231672    0.10388349327001    7.87343402952204
C        -0.63653485134108   -2.82648739307931    2.95125169813156
C         2.16143548553100   -2.65699744573268    3.04984655679818
C         0.74016422098317   -1.24969172577243    1.10820746895752
C         3.98986702412432   -0.11639633767100    5.56571714085906
C         3.06825373589700    2.52410320363410    5.18954015565294
C         3.81907810118736    0.96993306426618    3.00728590819870
H        -1.97123826712277    0.71100884818135    1.56805420934366
H        -1.83548474216939    3.82634451787819    6.64253997509094
H        -0.25073259034083    2.08963747422551    6.46719102947324
H        -0.02528049632560    3.04516847313751    4.99407790154280
H        -3.54623795803727   -0.58788896411077    0.20662873885187
H        -3.73339331045929    5.26683273432019    7.18274055278749
H        -5.16042007393707   -2.33982171588791    3.74397516743189
H        -6.16683778150480    3.09865206251203    4.43383761230314
H        -3.60310832458629   -1.03752616580945    5.10601405212762
H        -4.27271159524415    1.65571182781739    3.88405315940320
H        -6.07301645556794   -1.68883645128467    0.48388676214077
H        -5.93219295553291    6.11397431758771    6.58826248523886
H        -6.02173200510560   -3.02001668468313    1.64519894550520
H        -4.87418634957090   -2.96396251059769    0.30008222149855
H        -6.88545595859396    5.32622194837334    5.32134577712977
H        -6.88027603119136    4.67310081261469    6.95773281662956
H         0.83849604320514   -2.76143335153180    7.53119162834776
H         2.08646431990234   -2.25552683843994    6.37235377042885
H         0.60697113215943   -3.03832655014271    5.79501054935973
H        -1.39203812690102   -1.54080288312579    8.00465904564381
H        -2.07769775187664   -0.24129585153054    6.99329341395621
H        -1.91098228583107   -1.87578224154329    6.33399830002116
H         1.05747627166329   -0.63874758027672    8.64997433571620
H         0.15799494212391    0.83218873425783    8.23990810486828
H         1.80669051123022    0.62119635770785    7.64467072589285
H        -0.36731209540592   -3.67206096055410    2.31909823180120
H        -1.56053709553488   -2.38280679049827    2.58857091783074
H        -0.80312641313373   -3.17386453319009    3.96893645271751
H         2.11382281492864   -3.43883562721625    2.29265464024900
H         3.06741071677896   -2.07336056892243    2.89877082191450
H         2.20625002455583   -3.11655745358383    4.03399364751139
H         0.82299342165997   -2.19230842070303    0.56716105809912
H         1.58387324939319   -0.60496149360820    0.86797315058496
H        -0.17037633050458   -0.73294847793377    0.81282602986332
H         4.96180491883621    0.37568567687465    5.57156063911783
H         4.10400126568762   -1.11956230870483    5.15747654368618
H         3.62815515607309   -0.19775694322667    6.58834582177164
H         4.13267474573213    2.74981165959798    5.24972324979425
H         2.58360053382529    3.22965094618627    4.51629860942832
H         2.61398820947683    2.61794829480192    6.17418994260302
H         4.82309573669948    1.30676583962514    3.26488973449733
H         3.35462836193921    1.68314667752197    2.32939469021698
H         3.88019285905806    0.00556884973123    2.50567199767460

