65
CSD_code = CIYLAZ | q = 1 | S = 0 | Stoichiometry = C34H25IrN5(1+) | MND = 6
C         0.81393521626355    6.93360951279617    1.56537661054085
C         4.16346412022922    8.29767768912303    6.90275642272353
C        -0.20605389982772    5.98744348845116    1.80699758390066
C         3.13119123050331    8.72267799399015    6.03405711643506
C        -0.92276227663596    5.42348221083400    0.75052300430444
H        -1.69826331469218    4.69687432795246    0.93820951824665
C         2.78080161815928    9.99722755496991    2.20179148960786
C         4.32210672433842    8.31264027563241    1.82294421870597
H         4.56322828771938    7.26085861323431    1.90244205807743
C         0.89314278920231   11.57288716287750    2.74160527161540
H         1.44191677839079   12.42098817851989    2.36231100474461
C        -0.44470890896416    5.67795539402898    3.20869519968002
C         0.35005328397514    6.72917381518671   -0.79938829560924
H         0.56428683061985    7.02560086209886   -1.81538158857552
C         0.21239720794628    6.14199020404536    5.38009333246178
H         0.87082069289193    6.69819875200090    6.03355363904154
C         1.45699720926701   10.29617767315274    2.72426825079597
C         5.21771938490305    9.18322179755737    1.23545802853788
H         6.16053546932781    8.81990284316371    0.86054800912597
C         2.45515714787727    9.91909875195305    6.26458688903256
H         1.66566651083469   10.23747988185545    5.60356993589009
C        -0.37626467150410   11.75954266381460    3.24892043585794
H        -0.81318017491479   12.74606868314309    3.26241597483865
C        -0.64147183261180    5.79329084481212   -0.54859279123470
H        -1.19582136767164    5.35910097508499   -1.36621028871078
C         4.87084225429651   10.52507418809749    1.13705435296606
H         5.54475893861590   11.23508918028100    0.68394719377538
C         3.86510941874234   10.22944742682589    8.21625542201402
H         4.12774684019564   10.84360556164690    9.06322256468191
C         1.06731548876357    7.28930426261772    0.24652174212389
H         1.82935530780989    8.02118124180212    0.01727135473314
C         3.64430060377735   10.92875061280364    1.62308067561040
H         3.34705422241087   11.96157567117064    1.55177703656452
C        -1.43583600439750    4.81741714145077    3.68340516071621
H        -2.08287067155392    4.31033018616006    2.98732414562664
C         2.84084495807304   10.65579192643286    7.36173483361784
H         2.34220284397902   11.58815502053678    7.57504172319759
C        -0.75119494587765    5.30857672709366    5.91169636339324
H        -0.84511965285854    5.20064026794146    6.97977961311893
N         4.59851864454247    7.09772623333336    6.39868743766008
H         5.33736584264743    6.53244581440392    6.78204149897361
C        -0.53481117176400    9.40545828131392    3.72381828977768
H        -1.11980766960936    8.58119383094500    4.10678003769296
C         3.17097383026021    4.65221010601327    2.52915760911684
H         2.49957432291640    4.71467066677779    1.68378507128648
C         3.96133454857131    5.67042755554023    4.43244669503690
C        -1.09079250586443   10.67553657883942    3.73549666105748
H        -2.08728184354558   10.82027303303406    4.12529669831126
C         4.54379700431239    9.04745773894860    8.00616681102950
H         5.33062483276171    8.72009511680290    8.66709183238757
C         3.85774849979954    6.83418837610508    5.28589583472539
C         4.82829299344370    4.60709063104357    4.68502182578675
H         5.47238493688125    4.61472147413245    5.55012296164655
C         4.00142815495084    3.55763855479102    2.70779859898208
H         3.98650244181996    2.74412930448601    2.00164734806188
C         4.84680576383036    3.53708048518189    3.80867982689989
H         5.50840266495257    2.70253571134651    3.98091030286211
C         0.74397881423173    9.18651949490594    3.22730824171276
C        -1.59142751947682    4.62569777177600    5.04100812203701
H        -2.35586850951818    3.96528179160804    5.41938120957647
Ir        1.81537549932467    7.47571071950382    3.23033549247578
N         3.14763514341696    5.68172381464389    3.36225425245991
N         2.97693910937081    7.78842693281321    5.05065454919763
N         0.37852193534201    6.32211787288143    4.07040741448158
N         3.13848057879896    8.69433254369285    2.30144216458795

