56
CSD_code = CIYQUW | q = 0 | S = 0 | Stoichiometry = C23H30CdN2 | MND = 3
Cd        0.12640694256151    4.26705154321162   13.21378699167679
N        -0.73431861387818    1.09580184977980   14.05575256894134
N        -0.04628665692768    0.90083384766281   12.04624225008671
C         0.91852566953616    4.81394169964650   15.22637719111900
C        -0.91350829515592    4.77011580753765   11.28988379377559
C         0.00736892147299    1.72264954226300   13.11910408461478
C        -0.78594114686680   -0.22436572542642   12.31710433606215
C        -1.21883586282349   -0.10317624478660   13.59340779288145
C        -0.95371274036871    1.60837306985868   15.36161043171466
C        -0.05139078586162    1.28486871947448   16.37602772136241
C        -0.27795622351640    1.78410963116139   17.64709800891020
C        -1.37175079415078    2.59490278048866   17.92242032412606
C        -2.24999396122573    2.90379900875430   16.89545711355907
C        -2.05642848527031    2.42517090968732   15.60690653188826
C         1.14396099216591    0.43415019490969   16.07114766193363
C        -1.57566328935884    3.13409462491223   19.30505352221751
C        -3.00472678157903    2.78469463166336   14.50108234083343
C         0.56043400046714    1.19273290008957   10.80061948721833
C         1.94272486329451    1.38709830638852   10.73664005884074
C         2.51812908068068    1.65800258545225    9.50530407601894
C         1.75609994905896    1.74812171554724    8.34896554509285
C         0.38429484332242    1.57453138414163    8.44455951411599
C        -0.23268818432425    1.30476488113611    9.65733162434893
C         2.79460981305910    1.31260859848300   11.96841786551336
C         2.40161973088247    2.06489070246303    7.03471888516845
C        -1.72499003382616    1.17068663293467    9.72362541053558
H         0.08831870896602    4.94945694072444   15.92652674330691
H         1.50819423212292    5.73288500154857   15.24881578703352
H         1.54561982248406    4.01914569370160   15.63493768489684
H        -0.35360081001936    4.36997440095298   10.44052673858517
H        -1.03207971997846    5.84234696493717   11.11876969329712
H        -1.91409386832037    4.32929633994808   11.24337461017081
H        -0.92474685695369   -1.01113173836802   11.60464528302230
H        -1.81977307865055   -0.75290630894544   14.19712858222564
H         0.41636796041627    1.54635751887115   18.44022666921724
H        -3.10058147209671    3.53971420662760   17.09608244982991
H         1.73322617684732    0.26321106885481   16.96768780433127
H         1.76850959801706    0.93273074115651   15.32986364141788
H         0.84190232197455   -0.53015504123547   15.66232643598667
H        -2.52525307863872    3.65646989794436   19.38523086983218
H        -0.77618696477830    3.83128564238597   19.55315425698226
H        -1.55408447178743    2.32881460210324   20.03761471528169
H        -2.52486132189940    3.49395856494094   13.81301377230016
H        -3.90211590972680    3.24783371208858   14.90380348143273
H        -3.29373676290305    1.90227163797193   13.93021171522090
H         3.58698923559265    1.80622891095028    9.44649694322249
H        -0.22515192731600    1.66378396938059    7.55658596270325
H         2.67064547111650    2.22348897963694   12.56116638158466
H         3.84322344111863    1.21359095023680   11.69908316917696
H         2.50950196462931    0.46588882117959   12.59094818408085
H         2.52779869437303    3.14336055656680    6.93604779388991
H         1.78892395679301    1.71895257941892    6.20587033885563
H         3.38496231088030    1.60511844532370    6.96518097685466
H        -2.10948109014837    1.60406760662541   10.64497008250762
H        -2.02883980409352    0.12441746892454    9.68155572789749
H        -2.18187970906328    1.68558826815508    8.88240837231843

