53
CSD_code = CIYTAF | q = 0 | S = 0 | Stoichiometry = C23H19CrO9P | MND = 6
Cr        4.90691570302277    2.66291353156004    6.79166239655444
P         6.99072552857482    1.59205312843514    7.07942250804556
C         8.10271054048367    2.13916940045479    8.40928144225655
C         9.57172856189796    1.72740236129115    8.23568585370132
C         9.90629322974517    0.65391242035084    7.27294240327115
C         9.39448841747467    0.95673654635958    6.06558656760463
C         8.57503164478552    2.18247769933749    6.13479530001949
C         8.99201978953442    2.89055189664327    7.44682410708324
C        10.46419826335772    2.01832772787051    9.39291816931923
O        10.11431431746154    2.56371949715983   10.40891366368716
O        11.72067335441483    1.64717502995109    9.13912654093848
C        12.65900548898293    1.87180296613124   10.18188221135013
C        10.57008663685740   -0.60902829900781    7.61074022982502
O        10.54209139516047   -0.84453616641536    8.93366500147028
O        11.03696591923570   -1.37801401980754    6.80754349746790
C        11.12179638832679   -2.06928202550702    9.35312556860557
C         8.37648890810222    2.98576220015168    4.87395281375709
C         9.45450047033925    4.30874778674660    7.53692434793940
C         6.99885961777354   -0.22069171477356    7.10203111775669
C         6.60862449326489   -0.89947530389136    5.95042722179682
C         6.59035939645098   -2.28052444028640    5.93927508215256
C         6.94139625722883   -2.98543757848436    7.08093730925347
C         7.30532030776515   -2.31080572216114    8.23457917390688
C         7.33774540058113   -0.92779090450539    8.25017208542989
C         4.05348094723827    1.00401344177473    6.83399078616219
O         3.45969836148640    0.02279358181118    6.87138246852990
C         3.25038084185375    3.47017148195262    6.61221450924155
O         2.21836209559388    3.96450474479306    6.50536311425344
C         5.68458887823146    4.36058207907748    6.80714898042572
O         6.06401460499797    5.44479554350357    6.84777879136629
C         4.71866574566888    2.75696817087201    8.64703788272811
O         4.51987470456471    2.82487306278420    9.77468187913156
C         4.98154752012846    2.53186288302616    4.92937071135206
O         4.91166595589768    2.44171456277548    3.78653527147814
H         7.80591729566462    2.51088728973995    9.38126568821557
H         9.45222398567545    0.32808824039893    5.19425059545342
H        13.62662174127810    1.57155181157389    9.78868597794608
H        12.66782255334607    2.92662170072796   10.46407659997595
H        12.39811397871125    1.27539925434340   11.05824982624751
H        10.91972793209058   -2.15383809429385   10.41795938957565
H        10.67621756176178   -2.90358985775092    8.80691685114757
H        12.19772242596118   -2.06324013122904    9.16634825184597
H         8.02591325974820    2.34195947637336    4.06945547304119
H         7.64266339554321    3.77588552580648    5.03098740141150
H         9.31755988740104    3.43953793377173    4.56663956932599
H         9.63946056625960    4.56886848499879    8.57713085298847
H        10.37395203739408    4.44818470722124    6.96952501348476
H         8.69635550663720    4.98300178666646    7.14334178356698
H         6.32659614628894   -0.33233754189858    5.07085036951987
H         6.30052074672537   -2.81103299564925    5.04466958779471
H         6.92575210837618   -4.06496857350474    7.07086493428332
H         7.56690346285570   -2.86376032989584    9.12481526568225
H         7.62403572179984   -0.39356425737286    9.14564756062909

