56
CSD_code = CIZBET | q = 1 | S = 0 | Stoichiometry = C19H22F3N6O4SZn(1+) | MND = 7
C         1.56121587477419   10.70464695463969    2.89559378604725
C         0.33505752130241   11.14836051247810    2.42862926348549
H         0.20205990696869   11.41840768848194    1.39383587052177
C        -0.72647157800158   11.19774455282445    3.32875357930583
H        -1.70331515566455   11.51359197913574    2.99678419012225
C        -0.52819998425880   10.84244109546842    4.64556860943513
H        -1.34305996087072   10.87194938324153    5.34721918692972
C         0.75080443024971   10.41470313522707    5.03422775804572
C         0.02350419092338    9.86581139712169    7.31460086016061
H        -0.73012734965163    9.20477686021342    6.88361550487756
H        -0.42640471912733   10.81457497426972    7.61028940113253
H         0.43920800953290    9.38176505673973    8.19377306964694
C         2.93532217622194    9.37779850915450    7.55566762828005
H         2.51980277928895    9.35023349989226    8.56053042519620
C         4.29386381336060    8.90824887475338    7.36276920774813
C         5.18701117768386    8.70187481144923    8.42079441699444
H         4.90125346138947    8.95885355410162    9.42865912330340
C         6.43258089926675    8.16578842542473    8.14929719869458
H         7.14674126065824    8.01124772294876    8.94341469410692
C         6.73794166263743    7.79167698518346    6.84779720273135
H         7.67859983195905    7.32002357051999    6.61195148382254
C         5.78574579572541    8.01265480122092    5.85323534337465
C         5.92631389714688    7.47395410844069    4.50941512362174
H         6.82940606892780    6.89244511497301    4.30471476559697
C         5.04476964467123    6.81526403251346    2.45705317424292
H         4.62317390864917    5.83273568428173    2.70316915919668
H         6.08767103138403    6.66453737204469    2.14258607406110
C         4.20930549371546    7.38058624609979    1.31544502975331
H         3.20061978898879    7.56914703084116    1.68103650750428
H         4.14707653975446    6.61809476626604    0.53809368977741
C         4.78744292185694    8.64964858678897    0.69675582518862
H         5.77068869576891    8.45019282719601    0.26639955837129
H         4.12470336652747    8.96580643264266   -0.11001223146040
C         4.92892038914422    9.79925984730911    1.70613712073725
H         5.76059785508418    9.60241650961396    2.38310969668397
H         5.12963165121676   10.72334544311511    1.15044882595754
C         2.73954028686643   10.55819151557556    2.05916150824215
H         2.71396751087537   10.99754053091822    1.06038047727704
C         0.93696743417173    5.59548243009303    3.77117297310243
F         2.09104228542174    5.14786069812643    3.26145870165886
F        -0.02904723118340    5.32210121711166    2.90220437721666
F         0.70013216649008    4.92627093257650    4.89500763619093
N         1.75420897702020   10.35983417888734    4.17021143623590
N         1.07154830235242   10.07647936266792    6.33552858487582
N         2.32320730574422    9.71771177127989    6.48966824142415
N         4.62500286904428    8.59951685756187    6.11212240004835
N         4.98083127663686    7.57670973947754    3.67289199239258
N         3.74601721811348    9.93888196317415    2.51270076501830
O         1.45693617217721    7.99498173676383    2.81534960131540
O         2.28986311105541    7.42820283401990    4.99904292759689
O        -0.07970787357783    7.88242593896188    4.71329986084231
O         4.74364004080022   11.10531897826507    4.95531373713999
S         1.13202426613823    7.42770024361206    4.09889071693126
Zn        3.38322461473470    8.98249581140013    4.44748337475513
H         4.35247254822250   11.54837320623063    5.71212206626335
H         4.80197342169544   11.75741170667779    4.25232849827752

