113
CSD_code = CIZBOF | q = 0 | S = 0 | Stoichiometry = C34H68Cl2N6P2Pd | MND = 4
Pd        5.68899710612705    3.60673641449079    5.09001069991086
Cl        7.04392005503047    2.72787796124542    6.71930958841935
P         4.99505051020463    1.50771839229855    4.47322196096664
N         4.10120022965083    1.21815363914968    3.14998708451155
N         4.61932324539294    2.28725602529852    1.04343663743792
N         2.52426522762615    1.92440834378443    1.59522125713720
C         3.81040354232524    1.82789159290599    2.04029467644821
C         3.82556304325544    2.67626801278461   -0.02619654277723
C         2.53189804616920    2.46145407755530    0.31919276581176
C         4.34365570469998    3.23440868965362   -1.30591252250060
H         3.57510496739507    3.15977328017097   -2.07049379609253
H         5.21602312203476    2.68829416017609   -1.65462638552810
H         4.61086830823850    4.28466219109274   -1.19235811851733
C         1.30818975558652    2.68949311841568   -0.49715954530948
H         0.88767630884448    1.74459858668827   -0.84253244218424
H         1.55569869642549    3.29195517211215   -1.36613979002344
H         0.54955955568791    3.21983579289260    0.07183339439212
C         6.05915507749016    2.33716926305190    1.17635185011930
H         6.23732359124808    2.17700256935417    2.25138870831803
C         6.64556610037583    3.69720940929094    0.81235353689757
H         6.69531702202830    3.84626727340058   -0.26143670598794
H         7.65497201532321    3.76734352386366    1.20996433532089
H         6.03876204692817    4.48090984012056    1.25763030283569
C         6.71424372612021    1.19957688679374    0.39095655527070
H         6.29513813278948    0.24173075230938    0.69241674602793
H         7.78530655765729    1.19111059266591    0.57774372836640
H         6.55693551449553    1.31934338639509   -0.67817844932977
C         1.41128203518553    1.66728472066762    2.48736322949265
H         1.88885643997038    1.20209272519647    3.35814584555662
C         0.76002440118734    2.97569735406000    2.93681029193052
H         1.53289124500772    3.69480448804633    3.20017027350922
H         0.13337052962162    2.79514544300344    3.80650822096410
H         0.14108368467294    3.40797725607844    2.15493745069873
C         0.40413554689804    0.67822543417895    1.90736644922933
H        -0.21085645653071    1.13383033136535    1.13714818800964
H        -0.25143097444984    0.32994331203585    2.70157930109947
H         0.92100937901082   -0.18083098072905    1.48620265113102
C         6.25107292278633    0.12763944613696    4.59780810744206
H         6.43991946077648    0.01369083894590    5.66874228350325
C         7.57368727993777    0.52056637475402    3.94438662136545
H         7.51738686887812    0.44072415698857    2.86207634724878
H         8.37428357641203   -0.13217594608557    4.29105531451439
H         7.83441145199422    1.54797675247992    4.21741700919959
C         5.69109228834163   -1.16319438403518    4.02190464640662
H         4.79004296607015   -1.46328954378264    4.55189787018518
H         6.42473902881672   -1.96548326447538    4.09537127167903
H         5.42992481805861   -1.02151197831088    2.97450446409306
C         3.73368217912711    1.04841011039049    5.79255238045921
H         3.03289020540385    0.35031967447017    5.31461040698052
C         3.00290458999782    2.35248586596061    6.12095496899757
H         3.71178612383703    3.05753494984812    6.59312740914072
H         2.17112640354478    2.18280983345931    6.80604139374328
H         2.61426045302627    2.80694612331379    5.20716826847310
C         4.30333836978361    0.42926813402954    7.06250525841948
H         4.61800871642120   -0.59892633367519    6.89877350953305
H         3.54644811987290    0.42880522347580    7.84774015740923
H         5.15981857963020    1.00430660284518    7.40996606217587
Cl        4.33376809781762    4.48565722871312    3.46099674734336
P         6.38260758857805    5.70575622643974    5.70708400402118
N         7.27642936918796    5.99526722320181    7.03034749748933
N         6.75838483895999    4.92608046036352    9.13687435888083
N         8.85341963259249    5.28902846855909    8.58505802352085
C         7.56726490531024    5.38550390192598    8.14001264247645
C         7.55218418162970    4.53708137572542   10.20648498705988
C         8.84583291103062    4.75195833846819    9.86107580875813
C         7.03413420304300    3.97891172199702   11.48620534209369
H         7.80268152655802    4.05360208406758   12.25078479536321
H         6.16173282800564    4.52497279673710   11.83491623516686
H         6.76698642547012    2.92864113009297   11.37265922028085
C        10.06956242640029    4.52396580267524   10.67740979097104
H        10.49002079036810    5.46887558349970   11.02280863870960
H         9.82209597367542    3.92146179303396   11.54637278538275
H        10.82822026586245    3.99368778270087   10.10839380711200
C         5.31855403231088    4.87605000779445    9.00397356483021
H         5.14035543192613    5.03621246060070    7.92893887632166
C         4.73227677697885    3.51595251250878    9.36797849087075
H         4.68243301144800    3.36694275769969   10.44177200767712
H         3.72292300737914    3.44566177660641    8.97026583407227
H         5.33922730327736    2.73230843203086    8.92280355696376
C         4.66337518425466    6.01357482415083    9.78939146162299
H         5.08240205101385    6.97146099262110    9.48794898314893
H         3.59231122749369    6.02195409226467    9.60260773047645
H         4.82069766407409    5.89380290408709   10.85852396688346
C         9.96637248459499    5.54623389293091    7.69290268777770
H         9.48875665856858    6.01141939186406    6.82213977526687
C        10.61770331386431    4.23787306900018    7.24340959207183
H         9.84488131606229    3.51871500650177    6.98005983147166
H        11.24431305401654    4.41848868762657    6.37369302237033
H        11.23670364103419    3.80562321683075    8.02525201583486
C        10.97347738312288    6.53533304785924    8.27290223211056
H        11.58848231714451    6.07974988536790    9.04312284244199
H        11.62903440293350    6.88363755581629    7.47869136373306
H        10.45657015065351    7.39437019891714    8.69406368425908
C         5.12669461801120    7.08593732080153    5.58253993437943
H         4.93780773276296    7.19991432975778    4.51161541053659
C         3.80409632474946    6.69308587616835    6.23603386760201
H         3.86051173028849    6.77282643484352    7.31834626112617
H         3.00354276190071    7.34595478989184    5.88950329450059
H         3.54323586080813    5.66572842031231    5.96293615859479
C         5.68677508568548    8.37672778776367    6.15844910043447
H         6.58784274162586    8.67677143113723    5.62845845361706
H         4.95318165767767    9.17906782405674    6.08499823933519
H         5.94793445506020    8.23501206517108    7.20584694018250
C         7.64404204267188    6.16504747646567    4.38781080090534
H         8.34485937108519    6.86309302349437    4.86578344521932
C         8.37475260189942    4.86093824244226    4.05939414537719
H         7.66583660145463    4.15596125290435    3.58716653125762
H         9.20658609623339    5.03059362583994    3.37436660749669
H         8.76332109614773    4.40641231433503    4.97317955578678
C         7.07445101618346    6.78423316645581    3.11784971632671
H         6.75982962161464    7.81244040023995    3.28159024362975
H         7.83136436813863    6.78467202538152    2.33263697956199
H         6.21795039692823    6.20924389266748    2.77035292677304

