63
CSD_code = CIZCIA | q = 1 | S = 0 | Stoichiometry = C20H35N3NiO3P(1+) | MND = 4
Ni        6.34476054516928    7.44717626236683    9.26364605527107
P         5.03905889830854    6.65915035072352   10.96689837970375
O         5.85338885158612   10.26331810141716    8.54873816930108
O         8.87726890426958    6.48133812575069   10.36828245267601
C         7.89448374545009   10.10080107542140   11.59112537054760
H         8.65255351980772   10.63788729973896   12.14952090653103
H         7.25050911477809   10.83933826380189   11.12087968065571
H         8.36770587365457    9.51874726330085   10.80344653668101
C         3.78205139783052    4.17946699474245   11.76355184953618
H         4.37573016254301    4.01823748474863   12.66287816681293
H         3.47420969301718    3.19821384741346   11.40735695336553
H         2.88149368712312    4.72547686337686   12.03180858418672
N         7.78258332948723    5.85886169300451   13.50322892010135
C         8.37654199000780    3.45749286859490   13.28266632094279
H         8.78711058207640    3.75707479521937   12.32121726005125
H         7.87402399267867    2.50212611404375   13.15449242744679
H         9.18933840857644    3.31074269802648   13.98444180066104
N         7.66285334165739    7.94907099925847   12.85910990882744
C         9.99562895683753    8.77574056804862   13.43280503928881
H        10.34560503469338    9.02923706738070   12.43427763954687
H        10.84206960756493    8.39041236588518   13.99253551209196
H         9.64967930786740    9.68171692266479   13.92346321545559
O         5.44273239812509    6.24983513299397    6.71648357049500
C        10.15598968896056    5.75374859838367   14.41016141689400
H         9.84173351684054    5.11022591738398   15.22577981051304
H        10.84694093737470    6.48865881442959   14.81239502383069
H        10.69508775587149    5.15433774550710   13.67803756969997
C         9.00282913793527    6.44637370523961   13.78287974119400
N         5.67152707913428    6.62370576418374   12.59576178711184
H         5.19099690198140    5.92844326071780   13.15897750303811
C         4.57269997623384    4.87379771906545   10.65828262874857
H         3.93341708227918    4.94945766211894    9.77047981859359
C         3.37897396909458    7.41997967109939   11.31132684889553
H         2.88903963226906    6.83206077384412   12.09479978458712
C         7.36398377028080    4.48655995473781   13.78093823308824
H         6.44610694202487    4.34243229318645   13.20119704622276
C         7.03273094881603    9.21510102171306   12.48224899523638
H         6.14935122953931    8.92281082000938   11.90487605462929
C         5.80250637225729    4.05895301702891   10.26303556845002
H         6.33449251894121    4.54172446478462    9.44216875688328
H         5.50274219473089    3.06690599435632    9.93255659912940
H         6.49494774997757    3.94261396069146   11.09353171471899
C         8.92902104525596    7.74629525849859   13.37322062245321
C         6.02743411214053    9.21745626762674    8.95519060018534
C         7.02516784151745    4.31292480505938   15.26027045000738
H         7.90407528972061    4.42559464703133   15.88750456316580
H         6.62155503096397    3.31720672469647   15.42135900146092
H         6.28323904409913    5.04286942885578   15.57854332644962
C         3.51578214736782    8.85640866064332   11.80241802708118
H         4.04974388010961    8.90156344337128   12.74834789543750
H         2.52716651819668    9.28396923051756   11.95547224405797
H         4.03194959424693    9.46729014341460   11.06296217466190
C         6.59130814679072    9.94594820824811   13.74833481008234
H         7.44624773342002   10.24542442553822   14.34861042981239
H         5.94832358004030    9.31450171435810   14.35785470635369
H         6.03892712472093   10.83981730801352   13.47420313950356
C         6.98430153146739    6.79326848656357   12.94738790650727
C         2.55855913456480    7.37714059284585   10.02545069073208
H         3.13853607569428    7.78712807166735    9.19649128480640
H         1.65928015601619    7.97856917475913   10.13646107661007
H         2.25289254117211    6.36578534991216    9.76945404809519
C         5.74991504249064    6.64164857100577    7.73415954723015
C         7.96609568235260    6.91933517097107    9.83471383365639

