56
CSD_code = CIZDOF | q = 0 | S = 0 | Stoichiometry = C26H24CoO4P | MND = 5
Co       -1.10640096916821   -0.20044353999000    6.17402566890279
C        -2.98805657392194   -0.52405894904061    6.61543025079955
O        -3.47743928653074   -1.61636781483681    6.56092888609721
C        -3.81501997293775    0.67915160065919    7.02725719735904
H        -4.83035017349990    0.34988378818234    7.25131274133155
H        -3.83886001870893    1.41003747844847    6.22198734601451
H        -3.38217490714730    1.15166091393281    7.90607400432707
C        -0.79055797842895   -1.19476276795092    7.62736763989483
O        -0.56918068962723   -1.81240221519070    8.56875389012251
C        -1.53915349279324   -0.75279748991497    4.52411129102131
O        -1.75126839241360   -1.04869847429164    3.43634800268435
C        -0.99792045234402    1.59526691631616    6.42306953974335
O        -0.66515162790611    2.68651430317467    6.55647229692039
P         1.07623415213890   -0.20076531961028    5.57155689457492
C         1.96471650121300   -1.76903094232147    5.81657293317754
C         3.33413932256536   -1.80221143714171    6.05836710536600
H         3.89418996299219   -0.88005183550976    6.12759202852061
C         3.97759783282012   -3.01560905482905    6.21472451531864
H         5.04117131764325   -3.03093833538105    6.40741017563692
C         3.27833408414287   -4.21379038700950    6.13065453784459
C         1.90913851717352   -4.17057136260263    5.88463770883282
H         1.35108014729064   -5.09359477156160    5.81904604517599
C         1.25599405169004   -2.96415332428551    5.73212082821810
H         0.18827721557852   -2.94002366365010    5.55194803369844
C         3.97584739365901   -5.52898432192394    6.28747080057305
H         3.41285731453339   -6.18436271387684    6.94909503243648
H         4.97664138388032   -5.39550087687961    6.69015133565579
H         4.05780536146652   -6.02499950473978    5.32006198899468
C         1.35444852692545    0.14438790985567    3.80944231446862
C         1.90084113170732   -0.78795121733968    2.93526338938830
H         2.22952099439868   -1.74928569579742    3.30432743336758
C         2.02126035340924   -0.48528536240714    1.59202301770380
H         2.44590335903771   -1.21603371426352    0.91826069778736
C         1.59927156605734    0.74083404120438    1.09046624451962
C         1.04807706905846    1.66591460031293    1.97088714892887
H         0.71077940914120    2.62288684446633    1.59872317989139
C         0.91772947392621    1.37084092905937    3.31259068482868
H         0.47734736815641    2.09269457588564    3.98840222699363
C         1.71506773078635    1.04041373732736   -0.37168746671414
H         0.95367174924586    0.48888618732685   -0.92368597068002
H         2.68803228002155    0.73458520643603   -0.75186935675528
H         1.57632974542033    2.10102460450523   -0.56559863044259
C         2.17380306860175    0.98774848205649    6.40442651481062
C         3.08809751818983    1.79013110666335    5.73283687826386
H         3.17777769712109    1.72938297097860    4.65734124944070
C         3.88682067083594    2.66925016193574    6.44222185172382
H         4.59187975272730    3.29115676595359    5.90872557213193
C         3.79561673712546    2.76647292356999    7.82433417237848
C         2.88255484214137    1.95290543622927    8.49036425431333
H         2.80065736519067    2.01622903816548    9.56607407782540
C         2.07827467303196    1.07777404408974    7.79140452745166
H         1.36221537863288    0.45678609220912    8.31474170202446
C         4.65563009621021    3.71942523788774    8.59455783509246
H         4.04044794043329    4.36187808013691    9.22268715359715
H         5.24432409363352    4.34273223927494    7.92635940823382
H         5.33492938550186    3.17091887609053    9.24673117017801

