67
CSD_code = CIZHEB | q = 0 | S = 0 | Stoichiometry = C32H22N4NiO4S4 | MND = 4
C         1.94858902789917    8.54599797477278    0.35496669116155
C         1.05377890287869    7.51797166904092    0.05557105322469
H         0.02081631164845    7.64970791447500    0.33684309867751
C         1.48221019281673    6.37168926932108   -0.57920804702481
H         0.77464245493710    5.58543391433425   -0.79635034197765
C         2.81543952432384    6.22539773338064   -0.94036058811256
H         3.14890867957355    5.32713355288578   -1.43672038977344
C         3.70813464981429    7.23629795660941   -0.66123690935620
H         4.74921031047515    7.14623365990941   -0.93189579892756
C         3.29798521553650    8.40137908053150   -0.00973340950760
C         4.29214204018600    9.45106484596261    0.23436263842479
C         5.10698886787373   12.16121889490883    2.14010048300210
H         5.92813016401666   12.86784109151205    2.14380264908499
C         4.15109543313359   12.25678356120110    3.17538898194196
C         4.13284118816356   13.19159472629059    4.19802630402141
H         4.86330101036608   13.97673584980738    4.27790854521669
C         3.08461249500792   13.00699496959799    5.09185123239364
H         2.90038135016239   13.63160247363633    5.94818523857161
C         2.28290878150323   11.92799079887121    4.77139308571392
C         1.12503783092544   11.46418555318895    5.45571080123949
C         0.29298781052350   10.43052871382403    5.10074885453081
H         0.44732100994559    9.84013773094924    4.21502171820997
C        -0.76757411633385   10.24388369861543    6.00333898351679
H        -1.52078864312057    9.48488114584231    5.89140374140070
C        -0.74181333909796   11.12873336033377    7.03632325281536
H        -1.42333232179531   11.21241439106592    7.85931000576249
N         5.10219795768517   11.28081250810553    1.17848632904110
N         4.05279967531030   10.41207505377167    1.10900026091148
Ni        6.47474013929244   10.86274521806653    0.00003963531517
O         5.39852147245992    9.41581041426460   -0.41499607795505
O         1.47073452396912    9.64338158936678    0.95907080185227
H         2.21677288975270   10.25170053136874    1.13641448262266
S         2.84223316865248   11.12510598725064    3.33893966118240
S         0.58175781793344   12.21657727632731    6.93137617884261
C        11.00092620861398   13.17941706126055   -0.35483532363110
C        11.89576451331721   14.20740847629376   -0.05540409646747
H        12.92872634159425   14.07564638893348   -0.33666688563992
C        11.46736134930024   15.35368829492534    0.57939864295955
H        12.17495089213028   16.13991647476172    0.79656828958811
C        10.13413242754837   15.50001184590385    0.94053980212913
H         9.80068533832004   16.39827463321011    1.43691702206125
C         9.24140964212827   14.48914518184903    0.66138273755278
H         8.20033406883792   14.57923412438275    0.93203370079474
C         9.65153045301318   13.32406795370490    0.00985442890694
C         8.65734890800733   12.27441243173463   -0.23427016263244
C         7.84245582663323    9.56431964520877   -2.14007252007411
H         7.02132287775924    8.85768785908255   -2.14377461925429
C         8.79830828470806    9.46881803372627   -3.17540468474363
C         8.81653582218728    8.53405456864395   -4.19808585076181
H         8.08609410450515    7.74889627370626   -4.27796602838790
C         9.86471107278022    8.71872707137911   -5.09195821795213
H        10.04891429871014    8.09416554768145   -5.94833153857554
C        10.66639531756512    9.79774539864073   -4.77149788020393
C        11.82420508967243   10.26162627712895   -5.45586803007999
C        12.65622715564971   11.29531200356292   -5.10092534579533
H        12.50192027629043   11.88566816652996   -4.21516998838253
C        13.71672498211500   11.48203578552108   -6.00357526988772
H        14.46991083632024   12.24106999243615   -5.89166229075654
C        13.69094372464445   10.59721690233338   -7.03658575944722
H        14.37241802230836   10.51359202713820   -7.85961566783081
N         7.84727063633207   10.44468836022509   -1.17842382534356
N         8.89667465492878   11.31341785244920   -1.10892961838767
O         7.55096958766158   12.30967199821389    0.41508792080726
O        11.47875484282546   12.08203316694077   -0.95895866553102
H        10.73270045036509   11.47373834776254   -1.13631929489472
S        10.10712723085797   10.60054352286242   -3.33897434137162
S        12.36743228594987    9.50930522248165   -6.93158978480019

