61
CSD_code = CIZHIF | q = 0 | S = 0 | Stoichiometry = C26H22N8NiO4 | MND = 6
C         0.31519119758764   -1.53633713398179   21.11806187549919
H        -0.75942666224756   -1.65596372855584   21.08427540289894
C         1.14019380594103   -2.10442269067943   20.15580026029468
H         0.74647145657181   -2.68992209982003   19.33797970056203
C         2.96002973379317   -1.25059771208271   21.18704076298824
H         4.03387905863967   -1.13102074069192   21.19124157801846
C         2.15312125110695   -0.66728867324012   22.17893116558409
C         2.64877786895142    0.13482625370532   23.26748148811555
C         4.11368151478242    0.26532933041369   23.54728995742593
H         4.60027766943078    0.83745305478383   22.75802147082534
H         4.58428368437621   -0.71465043142529   23.60497181045984
H         4.24354800190163    0.78971342679083   24.48991957178303
C         1.06266531858598    2.13729735637752   25.58272312038758
C         1.39637383610987    3.01032752142110   26.72634945882185
C         0.37017782687750    3.69596774234578   27.36348644432060
H        -0.64544276209232    3.58758567464462   27.01803064282362
C         0.65142409244903    4.52460528796564   28.44205142165913
C         1.96450799623102    4.66166059885061   28.87972439543937
H         2.18580815395794    5.30780280186699   29.71970830033464
C         2.98457310406108    3.97524199296222   28.24151110397474
H         4.00012605735825    4.09099805926323   28.59027960108457
C         2.71068053654203    3.15109260363275   27.16825904937734
H         3.49662530392555    2.61489039716889   26.66281152142059
N         0.81196810534150   -0.83756487134620   22.12534621338192
N         2.45929280242919   -1.96088080639173   20.20011899358206
N         1.74367715216340    0.75371807087756   23.97851069607633
N         2.09067866197030    1.50665289384285   24.99975769426029
Ni        0.00000044603701    0.70294150477145   23.48752839862505
O        -0.12417734026479    2.00595603560997   25.20121162678581
O        -0.37958371564736    5.17924199355844   29.03991465871686
H        -0.04768497318901    5.72279524982210   29.76480832715639
C        -0.31519904678745   -1.53636841970828   25.85696562702433
H         0.75942220879552   -1.65596332497479   25.89077191414707
C        -1.14020321843146   -2.10445134998365   26.81922731179405
H        -0.74648083251756   -2.68992407004440   27.63706693635610
C        -2.96003356398662   -1.25059473574292   25.78800304513219
H        -4.03388458205115   -1.13103303641865   25.78378812787553
C        -2.15312223201969   -0.66729503220824   24.79610994517128
C        -2.64877654643143    0.13481448922246   23.70755254168522
C        -4.11367877736206    0.26531917974081   23.42774053810377
H        -4.60026647341247    0.83748841351555   24.21698199848856
H        -4.58429054467384   -0.71465804978097   23.37010888784812
H        -4.24354200969320    0.78966078643412   22.48508644167256
C        -1.06266545747801    2.13732046776388   21.39234652808797
C        -1.39636884962753    3.01033049999210   20.24870212876697
C        -0.37017371560910    3.69596837028805   19.61156043462525
H         0.64544790495173    3.58758481353856   19.95701116771211
C        -0.65142195847533    4.52459847223684   18.53298994311697
C        -1.96450675956746    4.66165383748771   18.09531969525029
H        -2.18580694011129    5.30778344535670   17.25532624790299
C        -2.98457090798895    3.97523949208877   18.73353847531968
H        -4.00012411769554    4.09099303933533   18.38477071178657
C        -2.71067708194265    3.15109908696932   19.80679682390348
H        -3.49662311827462    2.61491248091857   20.31225891825288
N        -0.81197330885484   -0.83758631025503   24.84968852149283
N        -2.45930024640201   -1.96089019401829   26.77491846564109
N        -1.74367277776429    0.75371253102162   22.99653231343519
N        -2.09067709627259    1.50666175102446   21.97529422072083
O         0.12417707758100    2.00598708833809   21.77386882465933
O         0.37958691209757    5.17921900772857   17.93511115703198
H         0.04768687632749    5.72276830767919   17.21021539431776

