31
CSD_code = CIZJUR | q = 0 | S = 0 | Stoichiometry = C12H10MoO6S2 | MND = 6
Mo        5.87667659153052   -1.41346901201344    3.28729437463774
S         5.27459310302734   -0.02953877506025    5.72054552608507
S         3.37628150391857   -1.57923016030427    2.82057931999643
O         5.82280652773385   -2.66091326952159    4.34243118226135
O         6.15982723551227   -1.92425886356980    1.74242723682427
O         9.46613765607167   -1.07182375249207    6.82976535407956
O         3.32689177528903    2.10596982184255    0.30714029027585
O         7.48566844809388   -0.58570052324338    3.88870863357767
O         5.42063253096678    0.44457029442060    2.67154233615374
C         3.31042419899796   -0.19817123867979    1.84128930628183
C         2.22423608981608    0.14188568353206    1.01210812393352
H         1.36700437989726   -0.50696307010143    0.96512682539552
C         2.28904384532424    1.28403963684450    0.27306523219942
H         1.51208734831781    1.61888198228194   -0.39707948479904
C         4.38039091971177    1.84667742458588    1.09358316233268
C         4.43394009331111    0.70343548698570    1.88768740372368
C         5.48440579445515    2.84616669937477    1.04663996011881
H         6.16339734732328    2.62235471530786    0.22291938482364
H         6.04828158484454    2.79188900833802    1.97480138325305
H         5.08368515327796    3.84654602985292    0.90123854681470
C         6.85242115411518   -0.35175038781128    6.16861963558239
C         7.31636122442285   -0.35361865287721    7.50981521103016
H         6.63450136860840   -0.09887127885956    8.30336541598766
C         8.59384280800770   -0.71983463026416    7.77190504048408
H         9.01623903917320   -0.77491309646843    8.76413799407328
C         9.09811897865385   -1.03671323231303    5.53288847469587
C         7.82835611853274   -0.65838177336579    5.15186289122981
C        10.12710465830212   -1.47975689963651    4.54886340722675
H        10.63184281868241   -0.62070170859133    4.10553008611979
H         9.62935673184094   -2.02950185945927    3.74725618115895
H        10.86534297223950   -2.10780459878230    5.04044156445988

