42
CSD_code = CIZRAG | q = 0 | S = 0 | Stoichiometry = C23H12CrO6 | MND = 6
Cr        2.51497847154828    7.19966535709472    6.65893043966112
O         2.32370717459785    5.15188514289197    4.67376447371578
O         1.53422040217491    8.99328509513875    8.88685176567766
O        -0.40022101864341    6.50467052201241    6.34902308668683
O         2.31292365646330    9.26534699326211    4.47056726932442
O         5.22186614426029    8.31367366573312    7.38037310396411
O         2.82975814639826    4.64281936553261    8.21515305834911
C         4.59675210768042    5.86345765699050    4.88232816938832
C         5.52453722813407    5.33338322447487    5.78112897397907
C         6.86469190838401    5.26798670080782    5.46737568023638
C         7.34154938228516    5.75491654744591    4.24779990420100
C         6.42250688908709    6.32333700754981    3.33197897266389
C         6.88603142728720    6.83756809499991    2.09648831674804
C         8.72146786472921    5.70452441474917    3.89758739603341
C         9.16329547589522    6.19173554513550    2.71473076857424
H        10.21227033203135    6.15135548276772    2.45816666044287
C         8.26467163851299    6.77580055188959    1.77444091554300
C         8.69849779793721    7.28696415198934    0.54996534923162
C         7.80135264117291    7.85054915906022   -0.33873737150623
C         6.45472181667578    7.91842767211529   -0.03180353304407
C         5.97529823565944    7.41762699987301    1.17966296598084
C         4.59695245125885    7.47981938696642    1.53611962081562
C         4.15084210297875    6.98447061204211    2.71418024823303
H         3.10336171680409    7.06208239028396    2.97323430560600
C         5.04236783565954    6.37457089298535    3.64722205343089
C         3.17947452918474    5.94847136445507    5.26380192383471
C         2.74736543183713    4.14984667175330    3.74211178075636
C         1.90457201412685    8.31357550883194    8.03834374213351
C         0.72509691666891    6.71835068370522    6.39527603297366
C         2.36905313765243    8.52504720543052    5.34578245968293
C         4.23335113812414    7.82764669431533    7.05920134514402
C         2.70829374608355    5.66926356583067    7.71179632553134
H         5.17567594836248    4.94984806687689    6.73012358554774
H         7.56069490070977    4.83717832672678    6.17211124647532
H         9.40940540950058    5.26758693724393    4.60716475300670
H         9.74895607691339    7.23770357261692    0.30182334920608
H         8.15597724916169    8.24276532087039   -1.28074172655474
H         5.76033276907982    8.36366106648371   -0.72959071689743
H         3.91064982136485    7.94210371163034    0.84122088103107
H         1.92527872230254    3.44102846851673    3.66375834764494
H         2.94363286188877    4.59532275187107    2.76438776879062
H         3.64948749808481    3.64607744905722    4.09509630779447

