77
CSD_code = CIZREK | q = 0 | S = 0 | Stoichiometry = C34H36CrO5Si | MND = 9
Cr        0.64490281850813    8.65929786039969    2.99216131075265
Si        2.91237136283785    9.44604648626530    6.27100529973086
O         1.16693606307989    7.18569911575322    0.10787224867699
O         3.34202313866019    8.40413540706270    5.06142818994139
O        -1.42434741883293    9.86334216007342    1.22968135888112
O        -0.27679099492842   11.01155995773997    4.56206057860957
O        -1.81876450495800    7.62040374125942    4.28644079099539
C         3.24320587698024   12.64974998955824   -2.56899644459556
H         2.62820880224337   12.63694118998738   -3.45707739711694
C         4.25265947614992   13.57900884018496   -2.43257584006902
H         4.43426257903386   14.29657796115946   -3.21937384512687
C         5.03517565758684   13.60314712922166   -1.28848899950180
H         5.82242747602776   14.33645620812189   -1.18787257693019
C         4.82102087691119   12.69253844819653   -0.25681499122172
C         3.79578892062629   11.72109212384508   -0.39081381156186
C         3.56853124059402   10.77089569703396    0.63544532217289
C         5.60624149411665   12.70708828285658    0.93595005523481
H         6.38610034141925   13.45008594921924    1.02226024373016
C         5.37250305212189   11.82874772324301    1.93480445449500
H         5.95676803910072   11.85146898935625    2.84350007851404
C         4.34431128701244   10.84455845013260    1.83028020440031
C         4.05405692918626    9.98835482209890    2.87498001874767
H         4.60157225975923   10.06362590882582    3.80128154237334
C         3.08138295377943    8.98701270292623    2.75227564157892
C         2.76465313752092    8.13532700132252    3.86588920730279
C         2.01252727859238    6.96918274783563    3.70487789223472
C         1.48475490295712    6.66023374132371    2.41600627572239
C         1.66606452920971    7.55715968896643    1.35130199272300
C         2.42298559189909    8.77120980955613    1.49936937728678
C         2.58786593491910    9.76498873368081    0.47560467323250
C         1.76225885457670    9.82183572636424   -0.68083003330254
H         0.93545373879017    9.13633014207049   -0.76642694875890
C         1.95575622510939   10.75334391676201   -1.64977579812083
H         1.30067470957133   10.78499402579060   -2.50811560185911
C         2.99887202237530   11.70982500939971   -1.56067767674198
C         1.93153775806913    6.01584380604177    4.87013542951948
H         1.13698515181297    5.28579012344712    4.72312774865063
H         1.70635489909408    6.58110698219932    5.77528617010271
C         3.27065073416438    5.29855513969928    5.07181169117356
H         3.55826977374256    4.74030754849918    4.18337073304242
H         3.20451256627464    4.60779272649271    5.90911413164597
H         4.05257012490240    6.02410282019432    5.28033196061950
C         0.69303676405434    5.39906117105945    2.15723584264153
H         0.13170347683544    5.54450537648822    1.23234520713261
H        -0.03574105165414    5.25387602820535    2.95785734913753
C         1.55187698252142    4.13891465518403    2.01918463389210
H         2.35707977150506    4.29192448166267    1.30299327204197
H         0.93665722147094    3.31460738234964    1.66611952383211
H         1.99073235098790    3.84850965901050    2.96903575047242
C         2.14934001434400    6.69481380181525   -0.78491382522896
H         2.91270770913663    7.44913724699804   -1.00236624616574
H         1.62216035170780    6.43965737802247   -1.70189032258445
H         2.63609725338046    5.79962637196875   -0.38392628760956
C         1.19807456322992    8.98776884368062    6.96538249199004
H         0.49661447787951    8.79197281695421    6.15546176834692
H         0.78600110809692    9.80035886013071    7.55363677571949
H         1.22337624379008    8.10968148282255    7.60449774839142
C         2.88129724994997   11.26025945222576    5.68043072923187
H         3.87465579583611   11.68997335008767    5.58470849652102
H         2.32864896409278   11.88120605758029    6.37753083266907
H         2.39143578410251   11.35180964797651    4.71482007388358
C         4.33114013544468    9.15957518716963    7.53786852580383
C         5.70057615697921    9.35984054107878    6.88371709274649
H         5.80378202455848   10.37228954559509    6.49982125388368
H         5.83789893938617    8.66191686628628    6.06116109156657
H         6.49622890218801    9.19275004182334    7.60929993123617
C         4.17646790239972   10.16943497878832    8.67460598361317
H         3.21568074861981   10.04726201459226    9.16766368153439
H         4.23851031018271   11.18783290156122    8.30098788099843
H         4.96110742325560   10.03059601934437    9.41758490396563
C         4.28197945878380    7.75142196102210    8.13447539641863
H         5.09956667198001    7.61254273312184    8.84159716104428
H         4.37454593203979    6.99842201516479    7.35705370772649
H         3.34754074198303    7.58745560718103    8.66502509693857
C        -0.58808466516876    9.40348508721662    1.87753435873164
C         0.17169389629861   10.10785183431903    3.99324471533988
C        -0.84018527079664    7.99019376734485    3.79030074695324

