88
CSD_code = CIZZET | q = 0 | S = 0 | Stoichiometry = C30H50CoNOP4Si | MND = 8
Co        5.56051659283811   12.40098032558816    6.97352608736631
P         3.25206457255957   12.35230738963386    6.85970893292568
P         4.26195825045834   11.54093033021346    4.55067592141987
P         6.48206751613139   14.24405162377844    8.02687760851292
P         6.48394511089673   11.63038675492038    8.95140335677011
Si        5.90467396983577   10.57096668431354    1.76904800824582
O         6.72657797461606   11.84630192248780    5.38048799380324
N         6.72855184152652   11.09988059608534    3.24788894294122
C         6.10810897127596   11.48814513043057    4.36982190711270
C         8.15491873104061   11.12509088964967    3.28978991395794
C         4.21201340528067   13.10787915262743    5.54414947953660
C         8.83552212459353   12.27645264450903    2.92631281970266
H         8.27733679161309   13.14470737189498    2.60775298707987
C         8.85220279242180   10.00577831064348    3.71631436201115
H         8.30674738528677    9.12006487571031    4.00774342185829
C         5.40286229057081   13.08804642555079    8.91749237103167
C         8.87779300051590   12.59482888903331    7.52069880797936
C         4.22045923591318   10.94482749401657    6.30780841299141
C         4.40413965822909   13.46256190113976    9.98108952463201
C         3.98890445791485    9.49125768068181    6.64812510656875
C        10.23428578875949   10.03845388770798    3.77156111649069
H        10.77675360684188    9.16712202324028    4.10711526516355
C         9.19495093933674   13.51852921022898    6.34506928536169
H         8.60240373290580   13.23549089785720    5.47999972992140
H        10.24892784241030   13.45498270844501    6.08118513700564
H         8.95919254285193   14.54990883348270    6.60996210439043
C         3.53876889856607   12.26842651021698   10.37925421215005
H         2.89688821626059   11.97335067016379    9.55164108032163
H         2.91198176499816   12.52196549096307   11.23156365065495
H         4.17108281248504   11.42330404174474   10.64937832237615
C         2.75593893266876   14.33927259737506    3.96793619370988
H         2.93167927452430   13.59568641808464    3.19101261873752
H         2.55411466422283   15.29613552701369    3.48987081206734
H         1.87605946440481   14.03846617795941    4.53589059851021
C         3.97067122266145   14.45136766208281    4.89694376173457
C         4.83799501063250   11.99626650245928    1.09798686632221
H         4.03257907438180   12.24443692241431    1.78352935890485
H         4.38614617354275   11.71954947782186    0.15092636139352
H         5.42307300072568   12.89678607513871    0.93136007598582
C         7.44389558651409   12.74149080029276    7.93489558796369
C         2.77662531058787    8.98764700126061    5.85581677192557
H         1.89262989214982    9.57079804408075    6.11229284426668
H         2.58331226580252    7.94066191046982    6.08246386370489
H         2.94925315273110    9.08253619912210    4.78401285685740
C         5.23666689105260    8.69751187663601    6.25175298245924
H         5.44963147372316    8.84403270649875    5.19152769835416
H         5.09630100726729    7.63425910130228    6.43686783402403
H         6.09413124470797    9.04444172741345    6.82695215722347
C         3.68917401516392   15.51946093795851    5.95120616695640
H         2.78503176249806   15.26953881706065    6.50437132259173
H         3.55235800650671   16.49136828847147    5.48158616236555
H         4.51978105042094   15.58589144370655    6.65208983266277
C        10.21767765157648   12.30313977225129    2.98358949059536
H        10.74720797126128   13.20153370866765    2.70343078891417
C         9.71284918894828   13.01839454428946    8.74010017184157
H        10.77398336988785   12.94015312919825    8.51228711583265
H         9.48729575595234   12.37859228612061    9.59211327335363
H         9.48616495864457   14.04803106155125    9.01315831821315
C         4.88107664364338    9.01262496394192    2.14845259127759
H         5.49014910169183    8.22363045837967    2.58101155681158
H         4.43349633223538    8.61995501758339    1.24154321614888
H         4.07468107656698    9.22888976711431    2.84348159656004
C         3.53013988037066   14.63491910792601    9.53951266579414
H         4.15621775690751   15.46524329039691    9.21469290974730
H         2.90354384508833   14.97142322755737   10.36278265089562
H         2.88765725129369   14.33802940270004    8.71301017098322
C         5.23976267841704   13.89734489893489   11.19721347555827
H         5.87795030409672   13.07904221987225   11.52723598836611
H         4.58722058119404   14.18727694243647   12.01815388742218
H         5.87297536990981   14.74373173305510   10.93542623345184
C         9.19168198583586   11.13951901320920    7.17462752585380
H         8.60320369194123   10.82626624800439    6.31729547647277
H         8.94878125813340   10.49652783153805    8.02136493025573
H        10.24668233327302   11.02189474718294    6.93460857727583
C         5.21348796507585   14.82742397344319    4.08562409989173
H         6.07238946445786   14.92461502654853    4.74830338412801
H         5.06536508079279   15.76971994652800    3.56169711381637
H         5.42897404274562   14.04844122038041    3.35241152128516
C        10.91766018516669   11.18535371220943    3.40485194364986
H        11.99616441065930   11.20933017651684    3.45112789282013
C         7.30800106795913   10.16713020569365    0.55377445018186
H         7.93461657659160   11.03156900540520    0.35841774571295
H         6.89699371838038    9.83733064213383   -0.39409203591141
H         7.95168731360616    9.37691705195803    0.92681253974200
C         3.70950575960276    9.32036048134630    8.13953766072032
H         4.54023121159790    9.70916389950330    8.72622996009629
H         3.57432894337576    8.26861920583062    8.38342774290373
H         2.80494597704104    9.86067519926422    8.41484477012543

