15
CSD_code = CIZZUJ | q = 1 | S = 0 | Stoichiometry = C2H10AuN2(1+) | MND = 2
Au        0.67197663095835    1.16391419082075    4.79837294404508
N        -1.03728160374165    2.16131403837343    4.09824169228592
H        -1.53554853543017    2.55244830800347    4.89622694777068
H        -1.66679589510691    1.47576383033773    3.68389591536228
C        -0.82462489686695    3.24387157768162    3.11390343324681
H        -0.19291142336947    4.01330966725764    3.55010387585266
H        -1.77070437827523    3.69394065557577    2.81296537865668
H        -0.33091053435052    2.84273922256928    2.23260587913831
N         2.39038964377723    0.18234613788461    5.49846474023761
H         2.97824840819402   -0.05359250435954    4.70047251127067
H         2.11144835652807   -0.70560784801822    5.91280648090443
C         3.22158801366207    0.90778713894503    6.48280145297984
H         3.57207710261392    1.83959081103630    6.04660527849620
H         4.08440361763285    0.31349375049743    6.78372834048443
H         2.62734549377443    1.13478102339458    7.36410512926822

