47
CSD_code = CMCNCR | q = 0 | S = 0 | Stoichiometry = C23H18CrO5 | MND = 9
Cr       -0.98048055982951    1.96858025036898    4.18058718527323
C        -1.79664848899221    0.99885532693461    2.87203099399984
O        -2.35625230249424    0.43045559630019    2.03647796423726
C        -2.67982166716554    2.56806748190506    4.43587020597436
O        -3.76874530475194    2.94717656174869    4.51711169147513
C        -0.95714052931459    3.28088042193779    2.91301723259249
O        -1.00753169792632    4.08987284488858    2.09125046920941
C         0.76892187966839    2.78586250025994    5.35792657271584
C        -0.18964184083400    2.38390693383415    6.27185125213163
C        -0.69289842091837    1.06209210456820    6.23108999649784
C        -0.22041630853883    0.16264576138375    5.28593824214831
C         0.84145395979808    0.51248835816182    4.39426322063792
C         1.33320996962121    1.85166780784226    4.43211233297601
C         2.36523214467537    2.24779251686264    3.54456177891618
O         2.77573501251540    3.54460577436227    3.62333831418750
C         2.88032238146699    1.34400802563747    2.62970956103941
C         2.37159454313715    0.03608349699607    2.59688217609544
C         1.38592056062495   -0.40320385261832    3.45201410472419
C         0.91454830590712   -1.78993064565179    3.40905478608153
C         0.50323951423679   -2.40460497802634    2.29493519369499
C         0.37256513134577   -1.74789085608630    0.95460594460691
O         0.09934667836100   -3.70334056999784    2.22304935446529
C         0.15966015029937   -4.50309928073109    3.37625297301220
H         1.20347242333168    3.77627192714633    5.40559511983746
H        -0.53078145632666    3.06394554629121    7.04352552446197
H        -1.41409655542188    0.74185029688366    6.97445772259193
H        -0.57854180483460   -0.85913863348866    5.29107067875528
H         3.40481246112419    3.72539175369127    2.91177111353727
H         2.80536020046260   -0.65768707579105    1.89370951618358
H         0.91087628781797   -2.31134437831564    4.35589672644027
H         0.30880828249233   -0.66897497334469    1.05636917550922
H        -0.52858058483342   -2.12020495628035    0.47324383691360
H         1.21962912958978   -2.00358085152861    0.31948286753947
H        -0.51904049090003   -4.13666225573377    4.15363357938488
H        -0.15589110245829   -5.49770460315305    3.06559864989768
H         1.17730440250359   -4.55286132050144    3.77765307143454
C         3.93835425647632    1.73032000709866    1.67791728367992
C         3.77493085294865    1.47145525056714    0.31885709418009
C         4.75781197292369    1.82746822327008   -0.58490241329492
C         5.91933592481580    2.44312496342809   -0.14666187594404
C         6.09606777038434    2.69612501995891    1.20262987487770
C         5.11298980260707    2.34410053156459    2.11089583570432
H         2.86438052149214    1.00210784728305   -0.02325654978078
H         4.61824241837852    1.62445135790551   -1.63627377317086
H         6.68634386978543    2.72002071878458   -0.85418674926668
H         7.00356847169823    3.16624424777474    1.55194777636299
H         5.27596983505115    2.51330977560924    3.16699436747259

