36
CSD_code = CMOHAL | q = 0 | S = 0 | Stoichiometry = C14H17MoNO3 | MND = 9
Mo        3.11625086955480    3.73553669564734   10.93933078911171
O         4.53774812751027    6.39469829087388   11.60186098082448
O         5.58252301092310    2.39829128849212   11.75745357741687
O        -0.44139821519436    4.25073384120795   14.94414268798077
N         4.58736105119660    2.95875084812324   11.47109519821817
C         1.41083409721342    4.41604057162366    9.47872320884237
C         2.55537932772321    4.09452586435396    8.70570140928058
C         2.82008181633490    2.71378817474760    8.87109846930673
C         1.84779923891313    2.18490236073762    9.75211159776432
C         0.97708895538196    3.23783220226208   10.11504715008843
C         1.68033860163773    5.78869214183583   13.01520074461923
C         2.70939287767455    4.67869995190465   13.00476321523846
C         2.25840913179262    3.34802025682099   12.83725647246604
C         1.63638010714305    2.38077364076338   13.47541100160120
C         1.14428760725083    2.42393678534698   14.92149648561240
C        -0.20359302262591    3.08761333622170   14.76692185617813
C         0.98709479833843    0.99588701094736   15.44273696568685
C         2.07071055912435    3.23369514817937   15.82440989271111
C         4.00427474040028    5.40620764719593   11.35482632620490
H         0.86243755562747    5.34998705881340    9.42834671952292
H         3.02962470468366    4.74507895644475    7.98021518437598
H         3.53563423279762    2.13462230151285    8.29730158768423
H         1.68501324607527    1.13308709546062    9.94841978552167
H         0.05376113364578    3.12516275778496   10.67223415636690
H         1.20624460896010    5.84919627533256   13.99618738232214
H         0.89417695875958    5.59547700418984   12.28279898750770
H         2.13869842439691    6.75425634944052   12.80178425109078
H         3.52836906781526    4.83599305206111   13.71331439274648
H         1.43166756528764    1.44334453313412   12.97115604201263
H         0.58966087777642    1.00461843198409   16.45548448274800
H         1.95498274610719    0.50045110800102   15.45557047449638
H         0.31069291542101    0.42063133292717   14.81343460112425
H         1.99192438003608    4.29201023470184   15.59751166125474
H         3.10112288286140    2.91490129777764   15.68882735520341
H         1.79032053231319    3.08877692656511   16.86531660834846
H        -0.98929551284768    2.39857922657528   14.39480829855873

