20
CSD_code = CMPYCR | q = 0 | S = 0 | Stoichiometry = C8H7CrNO3 | MND = 8
Cr       -0.72320289035585    2.49875364755206    1.09391949723271
C        -2.52742930374962    3.12192772361643    0.08197129365490
C        -1.14613654901508    4.72731605974529   -1.25462897378509
C        -2.63614356515278    1.73934185421638    0.16378281396270
C        -0.35995207263243    1.40082610679487    2.49847987408779
C        -0.75773759610403    3.71345640309161    2.44493360916007
C         1.06318990412742    2.78995854220403    1.25424761608464
C        -1.54102217609418    1.18986607703709   -0.55537333742536
C        -0.80049351662637    2.25603641772726   -1.05067160360422
H        -3.25012143386846    3.87912947224830    0.34832840687328
H        -1.45963044594776    5.51183968311098   -0.56504828250121
H        -0.07544162873333    4.83604458669257   -1.43168198860494
H        -1.67750684451654    4.85846268273528   -2.20548994810474
H        -3.45295503557087    1.18904054867283    0.60137127745556
H        -1.37394942451616    0.14590557062025   -0.76430301030613
H        -0.00517567978554    2.25207752467781   -1.78139842175021
N        -1.41647741569201    3.43731151519144   -0.67916634467995
O        -0.07880951302365    0.75445505826825    3.41911209909469
O        -0.73100637030584    4.46219803130029    3.32978902989321
O         2.19590155756310    2.97465249449701    1.41842639326229

