31
CSD_code = CMSICR | q = 0 | S = 0 | Stoichiometry = C12H14CrO3Si | MND = 9
Cr        0.12185083620887    1.09514803682267    3.22476298374157
Si        2.06881715007363    3.19544009696942    5.60856626872119
C        -1.06807071336321    0.66689861911368    1.91382897779349
O        -1.88153772158074    0.44249540721210    1.12356752496258
C        -0.71417687484791    2.70082787573061    3.06900406409911
O        -1.30833368444683    3.69048962179425    2.98008663985456
C        -1.34020520956336    0.76207953361879    4.25467740952401
O        -2.31476559034803    0.60113791538642    4.85692685334142
C         1.96129279176521    1.76559592103742    4.36253782405963
C         2.18844843471032    1.95461993602079    2.98059007262956
C         2.08989862250150    0.89964725169756    2.07416420888750
C         1.73057228985487   -0.38271772399614    2.53191225733411
C         1.51802233397129   -0.60025290839867    3.89204377711476
C         1.60914406960378    0.47890846197650    4.79118435315668
C         3.64944254222437    2.93764953225806    6.65282775131290
C         2.14246015138195    4.84636068194096    4.66307320710966
C         0.49751195433172    3.11154538720576    6.68154410783421
H         2.52335944975967    2.92370575001678    2.62965404911862
H         2.34092020413782    1.04771274034774    1.03034100236352
H         1.70958543657374   -1.21482911553027    1.83732159316790
H         1.32625483616700   -1.60073092457660    4.26210110081158
H         1.49014560738577    0.28624263484761    5.85167821439703
H         3.64228325865424    1.98038454685260    7.16573339938650
H         4.54829047760938    2.97711991917376    6.04416436384936
H         3.73277778524262    3.71179924163740    7.40862616148007
H         3.04367042001379    4.94104858959535    4.06436878875522
H         1.28619127246213    4.95785252766071    4.00441447060607
H         2.12994993069529    5.68030647733324    5.35726433271327
H         0.39512298891287    4.00048388832690    7.29561586646321
H         0.50768185004444    2.25699599848634    7.35139059539639
H        -0.39150490013602    3.03103407943767    6.06042778001410

