22
CSD_code = CNALWI | q = 0 | S = 0 | Stoichiometry = C8H10INOW | MND = 10
W         8.97039681625251    1.45321396877464    1.57688193640217
I         7.80445602864779    0.06617506726348   -0.54204772016043
N         9.40711085108759   -0.10674108208810    2.29346163746128
O         9.82566329882743   -1.08047066637948    2.82827926880225
C         8.35085034115759    2.02569282388700    3.67063095405656
C         7.24445390056459    1.33113420301096    3.10221000575472
C         6.67150668126222    1.90690640029789    1.96887518538749
C         9.52135169093700    3.71689717205267    1.12787888562173
C        10.49233162124464    3.19366861365805    2.03148295940842
C        11.20246709067538    2.16524998011337    1.37322887790519
C        10.65288157155831    2.02064554037688    0.07460154927148
C         9.62659300471491    3.00509821193778   -0.07540395773822
H         8.23158708350018    3.10714165167551    3.76565120226278
H         8.80441991256493    1.58026181280101    4.55291971628359
H         6.92574172846903    0.34889334517241    3.45930780543977
H         6.67077802692682    2.99539670655061    1.87783764041295
H         5.82156956757938    1.42115242975858    1.50086392250608
H         8.92997896162930    4.60979436923692    1.29177890718482
H        10.75613735027549    3.62166634360090    2.98925092556477
H        12.08073360709932    1.65582049989000    1.75162647924953
H        11.06568682961166    1.41621771637970   -0.72642796133385
H         9.10970403541404    3.22918489202938   -1.00078821974289

