83
CSD_code = CNBRUB | q = 0 | S = 0 | Stoichiometry = C42H34N5PRu | MND = 8
Ru        2.88962228399499    6.29840393629866    5.63814683779323
P         4.37992915293152    4.66261906078419    5.05952957512535
C         5.31245200623932    5.01794124476664    3.52250121331378
C         4.96803483466543    6.10656127354072    2.73214256469446
C         5.67297346544980    6.38237263766596    1.57331986023593
C         6.72756401893656    5.56943157549491    1.19461777306389
C         7.07427136618750    4.47788444583473    1.97616759354958
C         6.37305865960204    4.20105198455867    3.13430400015970
C         3.58320389997933    3.07088598526313    4.65496518477012
C         3.57975044376983    2.51767453159078    3.37934723327802
C         2.90553959715456    1.33179925605475    3.14208628834476
C         2.22936191050738    0.69178053065846    4.16715142714781
C         2.21790743851198    1.24598799264744    5.43754950627793
C         2.88349421745907    2.43274387912484    5.67682130897122
C         5.80735079143274    4.16161444829055    6.08034623726843
C         6.73210694866186    5.17616303639892    6.32259794279305
C         7.87818460922483    4.91673900660413    7.04815116872584
C         8.10421594015852    3.64204245030049    7.54598252527139
C         7.18671606019175    2.63283329926381    7.30959974997648
C         6.03823185248944    2.88529781609604    6.57617937512065
C         3.91934859671579    5.46713104442096    8.45331291792624
C         3.14200294733266    4.27348913500409    8.78462514232969
C         1.75142531693577    4.38062322317944    8.87794300919929
C         0.98111623478434    3.28213295763260    9.20370346388990
C         1.58238741965200    2.05576828917282    9.43892303773824
C         2.96021644154385    1.93834260225934    9.35409941881413
C         3.73766219085393    3.03521848330307    9.03205305596021
C         3.31718631913739    6.51338851747359    7.63596651429881
C         5.18788755203233    5.69468456707859    8.92495773458546
C         5.93889663968741    4.84492672032891    9.75793422606549
N         6.59600195315147    4.20888316183784   10.45251017869553
C         5.85150384226983    6.89635644353117    8.59739107595171
N         6.40866552494641    7.86504024103664    8.33311954254888
C         2.98376886022830    7.68048819241695    8.26536571640406
C         3.04504523559991    7.80461997146817    9.67273501856879
N         3.06982065187741    7.85862451318544   10.81895368630148
C         2.55161522493051    8.83591787549364    7.58202074749347
N         2.22023910198689    9.81473182147167    7.07832289858602
C         1.02571364518141    7.50882622307299    5.12131675757247
C         0.66334948502980    6.51964957224044    6.06526900744804
C         0.91576051988090    5.24447638314654    5.50270736143723
C         1.39437113179638    5.45543367796459    4.17621220736121
C         1.46762691972833    6.84462873260098    3.94437770237463
C         4.21251431111384    7.64541829479248    5.45206712362562
N         4.94750521972459    8.54122703123372    5.31508437771754
C         5.85404377628761    9.61942967028086    5.23320249721198
C         7.27336031604190    9.04874178794079    5.29388849203594
C         5.60218395501487   10.33310049326681    3.90187803951679
C         5.59195530982460   10.54900822903398    6.41946547876076
H         4.14736203010151    6.74372743613121    3.03883261773032
H         5.39967448791097    7.23266358252919    0.96528580236722
H         7.28045946825599    5.78496120830020    0.29247814670889
H         7.89569104091711    3.84161368248411    1.68135737004681
H         6.64463987821745    3.34981104000295    3.74356724946933
H         4.09724413911211    3.01290930966542    2.56998203522149
H         2.90678476478186    0.90763912008512    2.14854215853359
H         1.70621040270608   -0.23303818839735    3.97489887893178
H         1.68602537986607    0.75810431475346    6.24148943337216
H         2.86513620394741    2.87940789995576    6.66093729903359
H         6.52744793309166    6.16703716054802    5.93289542213353
H         8.58871991751955    5.70754481370977    7.23569673595861
H         8.99239692924943    3.43796278924463    8.12338695779471
H         7.36406270791293    1.64118841991927    7.69910444798364
H         5.33042084239342    2.09038332425130    6.38634630753906
H         1.28045770180294    5.34014036434496    8.72304305360840
H        -0.09168467993925    3.38295334240218    9.27906813985922
H         0.97896435956039    1.19673573106156    9.69213866717467
H         3.43518220849234    0.98643178153854    9.53860075062460
H         4.80699983629633    2.92535172796461    8.94656827799086
H         0.83885933153469    8.56912823481764    5.21634284360718
H         0.16002486301036    6.71292335561507    7.00466896321438
H         0.57445023644871    4.29721870985552    5.90036184369657
H         1.53186449667666    4.68113937407941    3.43037573648320
H         1.66390999304087    7.31976513032384    2.99240043974374
H         7.99549615523031    9.85472949308837    5.19762789330930
H         7.43448930422742    8.33273562299208    4.48921915159170
H         7.42719296217983    8.55251282923560    6.24928059747673
H         6.27880963297289   11.17742006525063    3.80348144402954
H         4.57859760797796   10.69805204221431    3.85976646232867
H         5.76725717884333    9.65183156779223    3.06925297901017
H         6.24328122050019   11.41639125488478    6.35858900376506
H         5.78869092638862   10.02220844823499    7.35003168331707
H         4.55583639792586   10.87967876400302    6.42126741004397

