29
CSD_code = CNENCO | q = 1 | S = 0 | Stoichiometry = C5H16CoN4O3(1+) | MND = 6
Co       -0.14886055811327    0.59099975028997    2.55135682047093
O        -0.13763565024133   -0.86481134831130    3.60456849903736
O        -0.14882160877513   -2.86468897662025    2.55133026485155
N         0.01636486556400    1.93261525467707    4.06687316306065
N         1.80614521049978    0.54727695163096    2.60029653609671
C         1.43709417066546    2.30140967663469    4.21210029486416
C         2.24967956540729    1.04857815511745    3.91193442147627
C        -0.14885535497030   -1.67362113875145    2.55133966269833
H        -0.22897700708040    1.34920694108810    4.87017474698091
H        -0.55623896038039    2.77223637498981    4.13381297923235
H         1.66324490705437    2.67497771150027    5.21503225418760
H         1.67254661883181    3.08653118063532    3.48867179573471
H         3.32245029160758    1.25917476406593    3.92672669215498
H         2.02521095211954    0.28327886996277    4.65865532885489
H         2.26824461598712    1.07387984877866    1.85625988213086
H         2.11297463323588   -0.42276550921613    2.48853741944278
O        -0.16006438335981   -0.86479631321193    1.49812251526456
N        -0.31419436830305    1.93258557463250    1.03582205982580
N        -2.10387391253092    0.54731507710806    2.50261355867680
C        -1.73493062523260    2.30142158540461    0.89075505043385
H        -0.06896205693503    1.34915509213817    0.23250198100989
H         0.25842478034180    2.77219021182793    0.96879656189162
C        -2.54753674242079    1.04862764617508    1.19102455953781
H        -2.56589056750170    1.07392102749898    3.24669980352733
H        -2.41069646992782   -0.42272387917200    2.61440571040721
H        -1.96118357010174    2.67498540598399   -0.11215393926374
H        -1.97027246921713    3.08656085959972    1.61420034407815
H        -3.62030195009917    1.25926802888037    1.17635335954759
H        -2.32318435612405    0.28331117666262    0.44428767378808

