45
CSD_code = CNIBOB | q = 0 | S = 0 | Stoichiometry = C13H24B7Co | MND = 10
Co        1.44197552541291   -3.10490643073988    4.86810465894753
C         1.37197485088664   -3.07510437260280    2.55511727614608
C         0.77363605207444   -1.87152703172457    1.84224708309274
C         0.26847433767204   -4.12272393731757    2.78165133319923
C        -0.08103304576097   -4.24548394754446    4.20695010097588
C         2.66097603466306   -3.64159788472826    1.98035559426904
C         1.43970053449112   -1.34011026197230    0.59221927542340
C         0.35147637798870   -5.36025567223039    1.91010355097713
C        -0.43459573982216   -5.60628451108362    4.75943537524071
C         1.85517285783347   -4.15950733542042    6.64104796121837
C         2.82520347779441   -4.55521828724449    5.68672767639859
C         3.52421719445706   -3.40409706259219    5.30018820394367
C         3.02297558831472   -2.30227470064448    6.04687392632216
C         2.01720290284095   -2.77837098754062    6.90231443548642
B        -0.70722198818907   -2.92433220251006    4.83959075928734
B         1.50499171413486   -1.61595020946507    3.39739751861375
B        -1.19806285835100   -3.42623933549767    3.03683388064132
B        -1.29427939066272   -1.73233020901149    3.63776011409428
B        -0.83002843096237   -2.01964789585317    1.97885248064482
B         0.21727638436926   -1.43218039357696    4.58407034777075
B         0.04484768493864   -0.78401931859707    2.94233782346616
H        -1.32577091092770   -3.09216355057132    5.82951406126088
H         2.55316783367982   -1.07841935687827    3.35109257893827
H        -2.15471957960418   -4.09130963546340    2.86686398918916
H        -2.33571119778872   -1.25731013855341    3.91217265972241
H        -1.50502760544607   -1.81948910574999    1.03852367795246
H         0.24951956014693   -0.65313001850967    5.46780027368681
H         0.02648063968570    0.35590170165283    2.66206549928085
H         2.51906927863274   -3.96360504142641    0.94777470510642
H         2.99994306989081   -4.50105002465633    2.55448208684193
H         3.45291237565752   -2.89696605208223    1.98865267993246
H         1.42162693167504   -2.08883483003806   -0.20154091540295
H         2.47617927817709   -1.05281074712806    0.76163217620095
H         0.90509185517051   -0.46351869678451    0.23311875553510
H        -0.54952060752641   -5.95840797098129    2.01828941700417
H         0.43370079514307   -5.07665409526597    0.86240812268337
H         1.20574405752507   -5.98706148506216    2.16546219033365
H         0.40215943986819   -6.29842266890133    4.66521791056041
H        -0.71819859177434   -5.54251667616857    5.80689316318284
H        -1.27838770416075   -6.03083898606190    4.21613353865831
H         1.22090062301999   -4.82754451505790    7.20095771229636
H         3.04067980161399   -5.56732890780994    5.38476836709090
H         4.37458785891412   -3.36973995301168    4.63807903318699
H         3.43893088551639   -1.30923931084767    6.04780429404238
H         1.50286184878729   -2.21537794674527    7.66115464655646

