47
CSD_code = CNPLPT | q = 1 | S = 0 | Stoichiometry = C25H16N5Pt(1+) | MND = 5
Pt        3.21319204833487    1.12496263848621   -0.76295434010595
N         1.78331409309897    1.67475303577632   -2.18413765389373
N         1.68037429043516    1.37594124335873    0.47723161519123
N         4.70658450728054    0.74875116369981   -2.05692321516924
N         4.58406826737802    3.28570933609773   -0.98033177181628
N         5.19612092332238    0.21544890584994    1.44565647375504
C         1.86315317937168    1.81646520907366   -3.49334010509016
C         0.77493027801269    2.19769826182497   -4.28054279589435
C        -0.43995054417032    2.44325259582048   -3.68358813052571
C        -0.55464528253425    2.30631593921185   -2.29031243081885
C        -1.76240941453210    2.53889245773696   -1.57121676484410
C        -1.81407192173836    2.39395685964797   -0.22451112336889
C        -0.66513967169030    2.00245564023092    0.52341636846267
C        -0.66888045701965    1.84237418781948    1.91922117259268
C         0.49551446372883    1.46466333994971    2.54703239976546
C         1.65029998124491    1.23869041557005    1.79660206837252
C         0.54410183125187    1.75795184138762   -0.15968972926518
C         0.59920467846813    1.91394163904819   -1.57915293376501
C         4.73849788562241   -0.44177165278963   -2.64130154192342
C         5.80303146982143   -0.86662126766702   -3.43286095024338
C         6.88358100291297   -0.03352574495922   -3.60120430447200
C         6.87264218862706    1.23471511349700   -2.99899417989121
C         7.97058123207856    2.13455287491055   -3.11767837873264
C         7.95178175963029    3.34301213638553   -2.50829594758152
C         6.81734288067253    3.76475888516779   -1.75898740159153
C         6.75538230478989    5.01802325293803   -1.12512171394451
C         5.62043281312527    5.36619457788340   -0.43550111163213
C         4.55202928334807    4.46414429174093   -0.40332976679923
C         5.69758318017080    2.91094838047691   -1.63493504452839
C         5.73907454092262    1.60455971551981   -2.23695824815600
C         4.44663223410517    0.52120654084861    0.63267096524855
H         2.82451742265940    1.62492885586532   -3.95257990330685
H         0.90044924887657    2.29382944488393   -5.34682659387038
H        -1.29962012835363    2.73744800906610   -4.26583632429004
H        -2.63709707533820    2.83460064160773   -2.12966198019446
H        -2.73156406944961    2.57221339525662    0.31467165942729
H        -1.57654439626287    2.01535154226259    2.47630639258502
H         0.53240870957070    1.33312189676419    3.61612735866764
H         2.56818450523717    0.93341426771170    2.28278619010457
H         3.89285759623510   -1.09939469615404   -2.46617487238732
H         5.77512817311722   -1.84599171726215   -3.88179431198721
H         7.74030575124931   -0.34023587244522   -4.18129854224010
H         8.82434885596308    1.81721119240303   -3.69622886097857
H         8.79367523794604    4.01442759565783   -2.58159881393195
H         7.59955059296577    5.68813407336749   -1.19026263518604
H         5.53911441388114    6.31601335254067    0.06759405627264
H         3.63463113563360    4.71940620393099    0.10951570197688

