23
CSD_code = CNSCCO | q = 0 | S = 0 | Stoichiometry = C9H4CoN9 | MND = 5
Co        3.90101065928146    1.55270789031401    3.73570421394454
N         2.10407670455895    1.60320738984287    3.53093694161477
N         3.66871436802375   -0.23805252925072    3.61408501722597
N         5.70485789769386    1.49218285442965    3.59829611373364
N         4.13898849658638    3.33257785352914    3.51310503076378
C         1.49160696895092    0.42014434999152    3.46978242281110
C         2.40578280716770   -0.65563159758692    3.51813811621889
C         6.31954727952987    2.67034413921196    3.48626592093575
C         5.40480396118505    3.74550598840486    3.43623652351424
C         0.09374487350618    0.27221800607720    3.36520627155303
C         2.03835106066368   -2.01554023606945    3.46702437261251
C         7.72034711959241    2.81347464696904    3.42078374502322
C         5.77438780584660    5.10041928429666    3.31551680651407
N        -1.04559637472428    0.18476663758234    3.26752878709687
N         1.77349373889917   -3.13011829261995    3.41432051370700
N         8.86237757725154    2.89551692389297    3.35518791796995
N         6.04251363762624    6.20988974690334    3.20458747858489
C         3.86934925988782    1.60752462610983    5.57869521811370
N         3.84855554193078    1.64142450594185    6.72038566678249
H         1.46549838755550    2.39797998403647    3.53559401630327
H         4.34819710373689   -0.99440422539351    3.68826549423259
H         6.34267702665977    0.70012746676176    3.67464917330219
H         3.45801409858977    4.09133458662515    3.51610423744154

