74
CSD_code = COBBAY | q = 0 | S = 0 | Stoichiometry = C25H27F18NO2W | MND = 4
W        25.69596701213311   12.95441992999882   21.72488796183608
O        24.30265831855504   13.57609853716017   20.34502780573342
F        28.56974266290157   14.87346131572243   24.90297529776931
O        26.81221467651351   14.47695150580518   22.60837587781391
N        26.81191993737003   11.81211795714410   20.98078762423982
F        27.05342445272855   13.35346365424240   24.94592176196453
F        24.61194198128674   14.44875615477840   24.85861524931760
F        27.00116185119649   17.50107149941232   24.43362359561367
F        24.40905754101407   14.89048192442779   22.76860366026275
F        26.32772142293618   17.24114611673209   22.40064981649808
F        26.80109686515523   15.17942580291578   26.07614445853947
C        26.55437919998904   15.25865157715133   23.66880475270241
F        28.32323613560977   16.67896941391239   22.95350119735823
C        24.88841699086679   11.81416239803271   23.11187849951767
H        24.10423147357947   12.36918186563991   23.65898074713386
F        22.20065004165685   12.22420839865191   21.68026406596151
C        24.94881187695665   10.40714513523149   23.62798620480988
C        25.00855055444120   15.30390058639684   23.91940023547246
F        24.51664479404197   16.49268104507676   24.22276177865923
C        27.25718433808330   14.67648126048362   24.92994818790220
F        21.48745675629562   11.51428283975604   19.77457841026169
C        29.15577936026143   11.86428414492041   22.44987658370626
H        28.15746995412600   11.96743416553292   22.92454295897264
C        27.62871852330165   10.25938380007710   19.34814752245621
F        23.50633507849041   11.09161113839623   20.41130776005754
C        29.00348048325358   10.94792804798086   21.26106921094835
C        27.06486970330944   16.69825458512272   23.37074038932105
C        30.15139701937405   11.36671196364275   23.49365569445630
H        29.92815115237957   10.34217651406358   23.78072007535618
H        30.09523750846951   11.99383411133713   24.37993576862157
H        31.16962227494164   11.41345574883226   23.11550785203556
F        22.22808617872109   14.85671729720259   21.38086897195895
F        20.84737664741752   14.19395173882660   19.87679904581335
C        30.00141744051171   10.10374881982392   20.81377940262525
H        30.93178581645041   10.03650256820578   21.35487308868376
C        23.10143567236429   13.33206222800038   19.79052404770794
C        28.65583941520518    9.42655176389645   18.94072317681959
H        28.54388832838290    8.83993744363099   18.04170557532149
C        25.55258937251068   10.42310943340567   25.04298633208234
H        26.55326681605979   10.84514058892919   25.01223482480136
H        25.60650165712341    9.41059812464846   25.43529622473080
H        24.94395385852262   11.02416755741898   25.71376795637672
C        22.12413195360050   14.50590245430306   20.09830714199440
C        27.79052162939399   11.01784980920040   20.52795406159674
C        22.53754545066520   12.02464041084650   20.40409930377478
C        29.82824457403539    9.33830113598397   19.67024705186968
H        30.61881043526920    8.68065968906905   19.34155204777651
F        22.41502083552976   15.57901646765796   19.36962569979675
F        22.09899561330922   13.50598706938453   17.60243290450245
F        24.19640126850031   13.95501194246367   17.77959960216250
F        23.51401312094879   11.92451553396115   17.89108154732009
C        29.56213955310653   13.24979293163000   21.92556940988161
H        30.47769190613339   13.17850666730921   21.34151750301081
H        29.73039809157600   13.93690997570712   22.75098144668687
H        28.76838535529956   13.65259277830372   21.29050661201390
C        26.35476445315200   10.41422435022668   18.55720025417803
H        25.71789731606431   11.13029602855320   19.10476040724810
C        23.52988807205509    9.81848758534712   23.69837165511883
H        22.87990687200072   10.43954297001365   24.30999086937469
H        23.55990881560998    8.82153065253024   24.13170061861444
H        23.10553499670990    9.74796800222758   22.70080950481033
C        23.22364270198296   13.17877297849170   18.24052425720192
C        25.80779250272282    9.52353722071819   22.71878149795770
H        25.47072459067886    9.62168641939396   21.68792736202413
H        25.72643532539290    8.48269161403340   23.02317611625519
H        26.85053609876897    9.82179322456974   22.77540063729570
C        26.65302649430133   10.98901698505249   17.17039643883724
H        27.15540235121863   11.94960234004082   17.25820975674531
H        25.72690113927915   11.12976286442134   16.61948546788659
H        27.29159311620057   10.31642474723210   16.60283602605152
C        25.60218225908240    9.08833331872532   18.44466114517688
H        26.18119163329519    8.36294732491245   17.87858878049581
H        24.65328472733172    9.24601778771478   17.93904198425963
H        25.40511560227387    8.68125601742934   19.43288323585068

