92
CSD_code = COBDOP | q = 0 | S = 0 | Stoichiometry = C42H46CoN2P | MND = 8
Co        2.61825500074613    8.14563321811774    3.94676862886420
P         2.67609091996531    9.79206988169915    0.54658915579026
N         5.05292183929271    7.51058546678859    5.19180933061870
N         4.80659899207594    9.63779121820628    5.38558605123194
C         4.20253948146120    8.52386605074815    4.91622095056739
C         3.56846634634189    6.43188281924105    3.71395902223387
H         4.17784615890491    6.66708011912330    2.82325102109599
C         1.86187876139128    9.27571393506094    2.10874868722867
C         1.77462105973005   10.20694140307764    3.15188984007682
H         2.17488294014349   11.20308640625912    3.01004158980456
C         1.11815252110783    9.89252591443100    4.34586878777385
H         1.02548245224035   10.65070635078629    5.11230162068165
C         0.51859227533887    8.64136779206294    4.51805654925924
H        -0.06854576772706    8.43478738373451    5.40363141498736
C         0.61017652350124    7.69357790718611    3.48818933795068
H         0.07650008469636    6.75496252460902    3.56437455788579
C         1.30296790892320    7.99767332408561    2.30840492882777
H         1.30761673547630    7.28002965810839    1.49767502489815
C         6.16413928986367    7.97046396726218    5.85540569028372
C         6.01491166757823    9.32060232203138    5.96819601932070
C         7.30123956679026    7.14799856488346    6.35088182749795
H         6.94902792913981    6.33171170221151    6.97917873646988
H         7.96370125320978    7.77584757653080    6.94161307647026
H         7.87339130597605    6.72746445055784    5.52490464334115
C         6.91123775519325   10.34336056306825    6.57558153794372
H         7.86589795113224   10.38467444881808    6.05089272687482
H         7.11268214677540   10.11068467327311    7.62121348520482
H         6.44505525364455   11.32478312373695    6.52197875076577
C         4.55665986522996    6.18415963672342    4.86370243954809
C         5.62219553559354    5.18481446734937    4.41072142480996
H         6.34162409795759    4.98126939274493    5.20471379779567
H         6.15929008124499    5.58454423968408    3.54784050969621
C         4.92433852744587    3.87294792542892    4.03915366765577
H         5.67941340892317    3.15593492079506    3.69309691525041
C         3.89569166447080    4.10212316728097    2.93501859826873
H         4.38655081540657    4.47669417966039    2.03422016609109
H         3.41092829651729    3.15447616509665    2.68437490610414
C         2.84973629658334    5.11892059607656    3.41159033836826
H         2.12249387297756    5.26445981239428    2.60734599177785
C         2.14210555908336    4.56251194512444    4.64523380186113
H         1.62413473469353    3.63338810890875    4.39300852191879
H         1.40423728460089    5.28315308967382    5.00039319628809
C         3.16478619458723    4.30799498522076    5.74846111193053
H         2.65955581776094    3.90926228865383    6.63635226066762
C         3.83670288683420    5.62996358979378    6.09927339209219
H         3.08446458894500    6.35908606445867    6.41073373631791
H         4.54844395453125    5.49250330841648    6.91810568450042
C         4.21748894699138    3.30930357782577    5.27121370540567
H         4.94236184830787    3.12162385305931    6.06797330445160
H         3.74180851846392    2.35799668657652    5.02225973015176
C         4.27554535947571   10.94875284720459    5.31446214054149
C         4.55316385597698   11.73944362777286    4.20081438957385
C         4.03962236666738   13.02727517494571    4.15922706091909
H         4.24472092672833   13.64810435429738    3.29852816264628
C         3.26208476677977   13.52904231338163    5.19309638945210
C         2.99224998653338   12.71482228040452    6.28539680773455
H         2.37900229066507   13.09491874617016    7.09059598682887
C         3.48894484280789   11.42312991409904    6.36343973266620
C         3.18673190049351   10.53209807523582    7.52863818087681
H         2.76846508551574    9.59008694169460    7.17432258749258
H         2.47926198030196   11.00481728143929    8.20481736188567
H         4.09710597489991   10.30183511444200    8.08167593739136
C         2.69322269139265   14.91383735574153    5.12191383109709
H         2.68372085691146   15.37982910974586    6.10491402682642
H         1.66532010742814   14.87548133940462    4.75949225019608
H         3.26824649454160   15.53630243288347    4.44082437135214
C         5.35533420438355   11.17618906337333    3.07127577202059
H         6.33486542016074   10.84661671653851    3.41578580515082
H         5.48511032743409   11.91044657875106    2.28104773127836
H         4.83597051384816   10.30700001195463    2.66370186641249
C         3.38416720486696    8.16457896087821    0.06163220842821
C         4.68922224290719    7.91297479440858    0.47224585765789
H         5.22881300450536    8.67458315947519    1.01843086670496
C         5.29545825302181    6.70289735907297    0.19052020574338
H         6.30931916506326    6.51798576515877    0.51673260191215
C         4.60293646465807    5.72907926186117   -0.50911752806051
H         5.07207186746277    4.78115419477962   -0.73041679347567
C         3.30686298977283    5.97564196997056   -0.92968991102498
H         2.76358792407745    5.21817766524493   -1.47691528597932
C         2.69899653284137    7.18646644267792   -0.65097451027219
H         1.68964736919730    7.36890963247228   -0.99445040164223
C         1.21513518598060    9.85236099502766   -0.56069905325746
C         1.44407445644500    9.86981509714697   -1.93540892563525
H         2.45736808471720    9.77013359619089   -2.30275747153878
C         0.39187881149333    9.99765841939223   -2.82062166026337
H         0.57909476225915    9.99790702105668   -3.88499673779554
C        -0.90289419715411   10.13072148878528   -2.34351834700673
H        -1.72696702090249   10.23161476410949   -3.03468564590139
C        -1.13559588441644   10.14128591966500   -0.97905433830602
H        -2.14289027624816   10.25381690999814   -0.60342402338437
C        -0.08321281487852   10.00937159108656   -0.09008805372811
H        -0.27350522875059   10.02433094540775    0.97448635955821

