43
CSD_code = COBGAB | q = 1 | S = 0 | Stoichiometry = C10H26BrN4NiO(1+) | MND = 6
Ni       -0.34296566806193   -0.08044966507271   -1.09253459619612
C        -1.21694250965448   -1.17607183069783    1.68392310893428
Br       -1.19155707366380   -1.64352452597079   -2.39799263389237
C        -2.47934555474931   -0.55846405900119    1.05708238785829
C        -1.92943647691231    1.79030066752860    0.56961029294170
O        -0.43463244753915    1.34496027894601   -2.92979548291922
C        -0.46125408009627    1.93930762410334    0.96727850131188
N         1.80433177898386   -0.76345717401113   -1.15000711357185
C         1.79201967130967    1.25631898060234    0.31945636865104
N        -0.30189827877549   -1.59156793492193    0.63146427063808
C         2.55293785944734    0.43320428153482   -0.71962251173192
N        -2.23095795859129    0.45604205580773    0.01626686687119
C         2.29596197212630   -1.17267980934096   -2.47260964979832
N         0.39484273055840    1.40156552765050   -0.09065202677042
C        -3.43814103692027    0.55565645559167   -0.81503285769744
C         1.96572016542602   -1.90653803816944   -0.23278312624832
H         0.05279508740340    0.90395003998033   -3.63663159376273
C         1.07252155889409   -1.87110446887773    1.01961575006732
H        -1.35227786562089    1.35112243364542   -3.22807120913903
H        -0.68568055227204   -2.42021275099633    0.17568634693895
H         0.36512836198938    2.05265502985033   -0.88138963142262
H         3.01318251186703   -1.99800317089467    0.08111474949466
H         1.69850118253481   -2.80488505623095   -0.79394744831317
H         1.40695426609154   -1.10768529328554    1.72360970620223
H         1.16983930978508   -2.84174107413198    1.52453868836787
H        -1.53638004790746   -2.01993243768487    2.31039371227594
H        -0.70974851190385   -0.46478119327115    2.33746601034453
H        -3.10317998862816   -0.13893384214532    1.85634718924754
H        -3.03417088082832   -1.37131492626061    0.58304219439418
H        -2.57235470894611    2.01285544060053    1.43153910960777
H        -2.14683106938585    2.52650589099386   -0.20893753073242
H        -0.24355421300379    2.99898616813289    1.15585575409620
H        -0.25505976213975    1.39783839941153    1.89118115091540
H         1.81991989519946    0.76841940809798    1.29438605843260
H         2.27790979866081    2.23471916848785    0.43151722045645
H         3.54028613934572    0.15850998086931   -0.32542228306618
H         2.70744608905104    1.05989348562578   -1.60204338658909
H         2.20094129025432   -0.34906320903804   -3.17832293211869
H         1.71118682380997   -2.01063035036364   -2.84617136040522
H         3.34917879616902   -1.46948019302985   -2.42547042895523
H        -3.29574304181134    1.30330455342718   -1.59358339417565
H        -4.30686127059855    0.84263666923902   -0.21295140697110
H        -3.64243229089690   -0.39963153672930   -1.29390283357117

