68
CSD_code = COBGAC | q = 0 | S = 0 | Stoichiometry = C26H34N2O5Ru | MND = 6
Ru       12.40496352280677   10.79303061385040   -0.14489125382746
N        10.34692532777900   11.05783004472717   -0.23697067464660
N        14.20894684953755    9.75490062501354    0.10806691845580
O         8.35635152608306   10.05126608767548   -0.26376304481465
O        15.15821056182548    7.74720331518276    0.33527548099759
O        12.04801557066438   10.59612838556443    1.90281836660990
O        12.94479747003047   12.86095431193160    0.28926830867635
O        12.90793713975068   10.99638531284244   -3.07909129003400
C        11.79797075524162    8.94214844173528   -0.23002674157124
C        10.42309154459676    8.68960484700649   -0.22658073729408
C         9.95384076037159    7.37434741339069   -0.11292511603778
C        10.90112649227565    6.36356700218702    0.02988464197275
H        10.54875261806378    5.34437526734677    0.11347257573473
C        12.27210015207432    6.59194551969095    0.11964551942713
C        12.71627414933862    7.91506266745976   -0.00084500013665
C         8.49097980145465    7.06638393462148   -0.12663850130581
H         8.31387304116087    6.00170878365046    0.00425510981003
H         8.05049711689103    7.38609800943005   -1.06977201372767
H         7.98301452110251    7.61264007160172    0.66631490737674
C        13.22954906278360    5.46806791997115    0.35401442458241
H        13.94515482887463    5.40941122622123   -0.46448808943851
H        12.70613738886593    4.51872078367638    0.43701188865843
H        13.79842570163774    5.64195914306166    1.26585508660388
C         9.69460261008693    9.93819314509860   -0.25193877964554
C         8.04546332085043   11.44465792914628   -0.25275208778649
H         7.45906872807185   11.65956658787589    0.64493263913403
H         7.44152707844366   11.66719019433113   -1.13513971025450
C         9.41509652007702   12.16466671216411   -0.25438872366432
H         9.54956894927531   12.75463852410782    0.66383630895610
C         9.51461670574549   12.37811809177791   -2.79058725430772
H        10.06630488325790   11.43988398684017   -2.79856892889217
H         9.89653698242308   13.00221319518210   -3.59404129922785
H         8.46475452740049   12.17471649144086   -2.99289859618789
C         9.70432259443213   13.08879997251232   -1.45302488480343
H        10.76565025732448   13.35375522340370   -1.36064018049288
C         8.85915907307744   14.35624722878705   -1.37275847434821
H         7.79826603921740   14.11941949457228   -1.43021789932695
H         9.10575739674640   15.02070739349612   -2.19675468110074
H         9.04306683210348   14.88470001296509   -0.44006959863068
C        14.04249505070187    8.47015662304926    0.15028359929030
C        16.25206676690778    8.66096423108040    0.40780875387363
H        16.93788070641047    8.44127568526608   -0.41482938090043
H        16.76990838466406    8.50195873643985    1.35630349889314
C        15.61317215888561   10.06489672523474    0.28658265865338
H        15.97181532781269   10.58656144793563   -0.61112886305509
C        15.36558191706938   10.37249405862309    2.80384969033005
H        14.36170848563619    9.96477880476714    2.70291368909614
H        15.35076596548265   11.12469872393542    3.58944137690901
H        16.03820388722797    9.57498652004426    3.11469596492080
C        15.81220110204346   11.00769868610895    1.48923543723836
H        15.16324108430445   11.86902215581933    1.28896022018075
C        17.25846103290559   11.48624462030478    1.56623591269748
H        17.37691656205837   12.18583160798261    2.39007475291059
H        17.54659725137046   11.98871377002997    0.64592968235607
H        17.93594702372560   10.64993356812620    1.72836894717724
C        11.58694587061669   11.09423010752955    4.16531252404406
H        11.30042075600796   10.04480145072394    4.16133365163378
H        10.74771789040593   11.69806125880399    4.50438469485172
H        12.41216958958591   11.23669820284677    4.86088333882244
C        12.00959361313108   11.51307093411319    2.76526722263690
C        12.33073300124131   12.85903627227456    2.58606140583698
H        12.24330947486644   13.50644181927161    3.44624533996946
C        12.78386892367647   13.43717455870970    1.39021797158123
C        13.12672750555354   14.91754322829606    1.44216675915349
H        13.92303918659793   15.09240314967102    2.16228305794015
H        12.25750420175367   15.49429083555261    1.74998807896516
H        13.45081308749865   15.24878919396305    0.45934363689648
C        12.70339579014048   10.94162911197120   -1.94509223839376

