55
CSD_code = COBLOX | q = 0 | S = 0 | Stoichiometry = C24H20N10Ni | MND = 4
Ni        2.17129442938647    8.19600018127107    8.68504740593430
N         3.04000100460070    6.72001688882404    7.97406148488051
H         3.97263716410524    6.44685433027235    8.30163768053865
N         1.47556869003848    5.92658737304957    6.39241737054714
N         0.74336230293518    7.84807045807155    7.55446855651128
H        -0.08995754316511    8.44583304762641    7.55591834659145
N         4.70399054585942    4.73029542549904    7.31986009739798
N        -1.54244650836985    7.81176350274666    6.16549275181371
C         2.63046716474827    5.88437077769691    7.05323670424653
C         0.60450343505066    6.89490560307674    6.66782923684009
C         5.54630187537282    3.75596592054201    7.03811044136062
H         6.48333693724246    3.77915428834596    7.58000494224915
C         5.27449733268389    2.75651276999884    6.11510299722429
H         5.99620026626770    1.97880302089939    5.91916933105312
C         4.05382531256782    2.78739027674711    5.45727722883199
H         3.80191076924623    2.02665051776070    4.73208735354683
C         3.16467788846273    3.80728078793189    5.74534440958950
H         2.20192040965525    3.88580480355652    5.26948912802120
C         3.53214234524088    4.76378376839420    6.68834947176556
C        -0.64919042727419    6.86806568397144    5.87447808774255
C        -0.86751830393834    5.91324211204044    4.88461527852043
H        -0.10621822884005    5.17629170403718    4.69268651588775
C        -2.05827776076468    5.95051640255220    4.18144612651232
H        -2.26147287058696    5.22644821167789    3.40521779649129
C        -2.98768667847638    6.93317130129730    4.48857455396037
H        -3.92866191132043    6.99674595326565    3.96454963571831
C        -2.67546192931754    7.83902376725697    5.49190643700642
H        -3.36450537428557    8.62604529236607    5.77124344228629
N         1.30259146848003    9.67198721278425    9.39603013736128
H         0.36995539514518    9.94514969414003    9.06845456676370
N         2.86701935501908   10.46541001173691   10.97768180572349
N         3.59922480755808    8.54392700173699    9.81563054522377
H         4.43254477051655    7.94616498777694    9.81417890989034
N        -0.36139268449907   11.66171739580914   10.05022168711983
N         5.88502882017924    8.58022765930615   11.20461733367324
C         1.71212593568664   10.50763397670386   10.31685422418084
C         3.73808190733375    9.49708866093352   10.70227400135006
C        -1.20368564185572   12.63607259109231   10.33193646877802
H        -2.14074903624645   12.61284192455633    9.79010312219888
C        -0.93188965642429   13.63551313850878   11.25496130501603
H        -1.65360472234457   14.41320546525341   11.45091977063693
C         0.28876674482829   13.60461114846539   11.91281991464359
H         0.54068464872821   14.36535374517035   12.63800541809377
C         1.17790693892186   12.58471073825367   11.62476498502552
H         2.14067061781930   12.50619606227560   12.10060626230525
C         0.81044395404090   11.62821122347802   10.68175552386010
C         4.99177421498530    9.52392774132689   11.49562811190570
C         5.21010289007849   10.47875300396641   12.48548925017906
H         4.44880806983522   11.21571210050111   12.67740913036343
C         6.40086048461776   10.44147678014300   13.18866171501848
H         6.60405716324186   11.16554781775388   13.96488720124216
C         7.33026872734220    9.45882116596998   12.88153546609185
H         8.27123988369981    9.39524104851361   13.40556699584789
C         7.01804401780412    8.55296799893020   11.87820422296352
H         7.70708058838253    7.76593553413740   11.59887911147404

