43
CSD_code = COBNOW | q = 0 | S = 0 | Stoichiometry = C14H23MoO2PSi2 | MND = 8
Mo        6.70735269541675    1.45562006918797    0.76759996413301
P         5.31075418989528    0.55946048248162   -0.73939278889348
Si        5.08416618911941   -1.07304167431975   -3.31075748322089
Si        2.47707396451966   -0.41233769434498   -1.27604892565612
O         8.06714074143692    3.31154021317065   -1.28712711269101
O         5.07027523722217    4.05351485627232    1.06217702784244
C         7.53371316620696    2.59535968729383   -0.55827096712138
C         5.64429433586322    3.06349376476035    0.92055619693719
C         4.33104395610044   -0.36723802365189   -1.71016143371910
C         4.01627572688364   -0.56992974970790   -4.80761617612641
C         6.83858803602152   -0.35262941589697   -3.48744740915976
C         5.17901240793166   -2.97561162549603   -3.17533894394634
C         1.71746547494927   -2.07714342828265   -1.81066610803945
C         1.60301639324054    1.03942584745967   -2.15165718491347
C         2.32509305856358   -0.20621914901040    0.61311659242879
C         8.15349854090216    1.59451967388931    2.53883028160950
C         8.67718240781530    0.61835271080340    1.65190878818449
C         7.77242779594273   -0.46035005567312    1.60145708456711
C         6.68788545714860   -0.16403435076990    2.46554210092423
C         6.92632266212158    1.09659216740850    3.04652229014277
H         8.69916192384102    2.44271185446518    2.93296319094967
H         9.67183553397974    0.63160541530316    1.21925440565259
H         7.95231644705967   -1.41951722587073    1.12691931142784
H         5.90698076625166   -0.85962798188862    2.75407309882999
H         6.35527139036374    1.53889437592525    3.85553190439034
H         4.44159743295112   -0.94654462495981   -5.73242570714618
H         3.00893834781358   -0.96352646511017   -4.72474995849355
H         3.94433376702252    0.50932572428436   -4.89347193788158
H         7.33479393029339   -0.68731894333179   -4.39287401061993
H         6.80779488770029    0.73382033096267   -3.50683334596193
H         7.45977228703683   -0.64151298567477   -2.64321912179571
H         5.67425272972444   -3.40366964228139   -4.04135476862682
H         5.73487488834567   -3.28022719545117   -2.29418565837108
H         4.19084825248513   -3.41738882750504   -3.11002274313195
H         0.66956602896062   -2.12804728446991   -1.53294033012626
H         1.77883739662165   -2.21245100613695   -2.88487127594418
H         2.22258229726094   -2.91489753998036   -1.34161977667269
H         0.55271575531300    1.09180636599736   -1.88211961296453
H         2.06390292206217    1.98395573329747   -1.87796868840497
H         1.66215408720793    0.94490210705164   -3.23079670977764
H         1.29159672038016   -0.12606204963051    0.93484254779788
H         2.76903403069216   -1.04731447017467    1.13723749608639
H         2.84485573933337    0.69394002959028    0.93570589751576

