65
CSD_code = COBQEQ | q = 1 | S = 0 | Stoichiometry = C31H29AuN2OP(1+) | MND = 2
C         3.15323727433241    5.67112125239260    3.54861664636204
C         4.92466521198793    6.57469103768290    2.57720189872214
H         5.87869184731072    6.60744107199546    2.09428222430971
C         4.07249376570411    7.57222705416219    2.90406523146037
H         4.15351270959661    8.62782197253681    2.75063247640107
C         4.92720156529771    4.09516354393124    2.80039114121060
H         5.14961393539858    3.63453397340149    3.76508115076224
H         5.85274635314803    4.19464931262617    2.23833957976428
H         4.24647781813627    3.44849752927052    2.24443322231803
C         1.89773195418654    7.75325822926066    4.07915268770994
H         0.96143883421217    7.49915480662920    3.57829466570373
H         2.09988134049315    8.81543762806809    3.97051892949226
H         1.79543878793322    7.50343364025054    5.14162599994544
C         2.26906981138465    4.67990398661523    4.11738189202942
H         2.70735030018280    3.69038543788584    4.03678329906450
C         0.87026204097937    4.68308452856376    3.60949557618162
C         0.01609224776470    3.50677022191964    3.94283626988090
C         0.40286118177730    2.44401350740654    4.75873627112648
H         1.39163076098406    2.40418324646951    5.19234124552900
C        -0.48111067115877    1.41880360859800    5.03661976470575
H        -0.17069851145726    0.60500498602772    5.67486040574510
C        -1.75987872706455    1.42988525804899    4.50183969487377
H        -2.44370487593624    0.62456305179104    4.72321441707195
C        -2.15273411473504    2.47383578809796    3.68115880584135
H        -3.14457455882412    2.48736205782785    3.25555564350575
C        -1.27148094137762    3.50140697470582    3.40549057887454
H        -1.56185551703672    4.32460743336414    2.76982005355985
C        -0.23026055228505    4.11130595302581    8.66283063884265
C        -1.12757791102327    3.94388848286707    7.61088234889788
H        -0.94499233411978    4.43929737664672    6.66503731910267
C        -2.24380924519427    3.14643069136776    7.77704314968702
H        -2.93609747224559    3.01760923246483    6.95909792365664
C        -2.46342454140347    2.51035223082953    8.98909155336461
H        -3.33235643815867    1.88344990182213    9.11774458593047
C        -1.57020823706470    2.67442577389634   10.03629847772862
H        -1.74450314083922    2.17818140569720   10.97896106207378
C        -0.45149489615125    3.47318161735186    9.87938781963238
H         0.24896211008706    3.60069058320158   10.69333480153017
C         2.41061449797089    4.66073721739618    9.63335371986072
C         3.14519246287896    3.50661725923463    9.36973823190334
H         2.98248257271919    2.97699929577647    8.43859456698228
C         4.06311404465091    3.04671059954222   10.29386024025778
H         4.62849702180731    2.14927767454931   10.09372395011291
C         4.25803595409987    3.74281440215392   11.47748122460547
H         4.97742233901967    3.38598226862076   12.19820769979985
C         3.53431629949615    4.89542572249537   11.73683494136408
H         3.68941121501136    5.43507422904286   12.65862531083427
C         2.60848531607809    5.36010053409646   10.81893259507021
H         2.04185202337858    6.25843083898967   11.02037382706787
C         0.69593344996192    6.83330107502403    8.86753409073468
C         1.59074357714535    7.87005180765841    8.60663690834729
H         2.54444601837831    7.64240523708239    8.14437649710052
C         1.26310415598297    9.16678546433783    8.95086014854680
H         1.95835832738108    9.96963256100458    8.75773355221098
C         0.03751826534714    9.43428236950188    9.54322427177767
H        -0.21987849944614   10.44764730025303    9.80974296892330
C        -0.85725249985452    8.40634346697625    9.79127325454887
H        -1.81075250583936    8.61880352141377   10.25005522171675
C        -0.53474940209869    7.10281188541403    9.45436699939433
H        -1.23151494204381    6.29901371470977    9.64621568496573
N         4.34898297285772    5.39965318024049    2.97959724649162
N         2.98233299704171    7.00677560472002    3.50975762938814
O         0.41512103509495    5.60679351089105    2.95339393482135
P         1.21180218917318    5.16894713135423    8.37436416399586
Au        1.89718394898322    4.99962773884714    6.20676166656427

