71
CSD_code = COBRAP | q = 1 | S = 0 | Stoichiometry = C25H38IrN6O(1+) | MND = 6
Ir        9.01733264658446    8.65758031504317   12.18697817364674
N         9.43350904422585    6.73573214991646   13.43012272086804
N         8.95478134358357    6.73270011733036   14.69144464568370
N         7.02396471879147    8.25179669838339   13.07244330563037
N         6.96967116922765    7.98403181232383   14.39454729161935
N         9.58703335693194    9.49013541153164   14.04470500847729
N         8.95851711622410    9.05045704680259   15.16524471018319
C        10.09821622727939    5.60929425974606   13.26100408517369
C        10.04682494488756    4.85395413978585   14.44932335876626
C         9.31420982451243    5.59169107208675   15.34591419282112
C        10.76649293549386    5.25848778076305   11.98820609318275
H        10.80252693842879    6.12629601655134   11.33381278312278
H        10.22142055524967    4.45905764400395   11.48801569357037
H        11.77635501307550    4.90409836481203   12.18193715564376
C         8.94990923252319    5.30042424017189   16.75348353952715
H         9.37468307120496    6.03910892346896   17.43372344377842
H         9.34540305653976    4.32622221589375   17.02518339242071
H         7.86893646421657    5.27719641667452   16.89194899637592
C         8.17094317056074    7.84394800419954   15.17051691999716
C         5.79181214039244    8.13796003745553   12.60835475842246
C         4.92031989678688    7.79853676206172   13.66068141647844
C         5.69601878310763    7.69665148749338   14.78702705975526
C         5.41075429132187    8.31379416177593   11.18808299856348
H         6.25220357721573    8.66421143406740   10.59876355245985
H         4.58675667185024    9.02041604455488   11.10501089603448
H         5.06987699958531    7.36145871762111   10.78328691602712
C         5.31694226203666    7.36299229283311   16.18097728798470
H         5.75108405061790    6.41339103445631   16.49535965567082
H         4.23622259688008    7.27181329008267   16.23907942628497
H         5.63036556892070    8.14002890067599   16.87811971446192
C        10.42214383299881   10.44708198912224   14.42898164989878
C        10.30680772141044   10.64369761009787   15.81729455318758
C         9.38013376892651    9.73778102974761   16.26415761768737
C        11.37498288152941   11.16100960311425   13.54732347953502
H        11.50909948803428   10.63344800185713   12.60813489474699
H        12.33347673998994   11.24316295813949   14.05611042248062
H        11.02771817331180   12.17330865697729   13.34435616988747
C         8.86912910580418    9.49713728963690   17.63503582429166
H         7.78376217570510    9.58764557932079   17.67573369245099
H         9.29627164076734   10.23854064950155   18.30406306412208
H         9.15342501007741    8.51073823430446   18.00279869586513
C         8.58112227434928   10.63504949509656   11.40621224087549
C         7.38302992873917   11.17647989863951   12.17664008675843
C         7.11928432322961   12.68955683364447   12.04044169840799
C         8.35310393726771   13.58935908911231   12.16616511912718
C         8.90392983132797   14.11249675920576   10.83739666479691
C         9.48853655211817   13.09127027630989    9.85822570907860
C         8.46436526721036   12.11584169751548    9.26682191288521
C         8.45740963121040   10.70327544093977    9.88695577839302
C         8.61585807793562    7.82274283745143   10.58537362007182
O         8.42782254204460    7.23430939787595    9.62203272063461
H        10.43397055815302    8.84728143885507   11.66115661620784
H        10.49329726247596    3.89655713968766   14.61842535895936
H         7.88123943736879    7.63664561573670   16.20624724789960
H         3.86368928082386    7.64758459174620   13.58919653270961
H        10.84546554165440   11.35741633178623   16.40469672364532
H         9.45156002823626   11.22666774299059   11.68662268745459
H         6.46942128435373   10.66645086359120   11.87415519580377
H         7.53695301614548   10.98928669879380   13.24466325197239
H         6.61639219796162   12.89477602138720   11.09860615620258
H         6.40980009416849   12.94782762188100   12.83118633696254
H         9.13611731151241   13.07197093830449   12.72200092851011
H         8.07955375837000   14.46756864211208   12.75605467333582
H         8.10634545921731   14.65906940660283   10.32879840276702
H         9.68903336803713   14.83703030070978   11.06923975469970
H         9.92452872815405   13.66689818855118    9.03923123365266
H        10.30757541215370   12.54121301083492   10.32267485164949
H         7.47192045254392   12.55886589208896    9.31947792495806
H         8.68116836965507   11.97757257457394    8.20593219653252
H         7.54618827692985   10.20485068919523    9.55088056003813
H         9.30847958983986   10.16866617039376    9.45999855822549

