53
CSD_code = COBRAN | q = 1 | S = 0 | Stoichiometry = C24H25AuN2P(1+) | MND = 2
C         5.79327274722600    4.37883477285057   16.02394539294645
H         5.99373633484512    3.44298492152030   16.53378854123978
H         6.21016712660588    5.19764991074251   16.59950358316000
C         4.39279696181811    4.55938440623987   15.80061499040232
C         2.42246484992202    5.49506353528999   15.40889040340041
H         1.71320477679988    6.28601388003578   15.28578669001310
C         2.26369777879707    4.15626320422255   15.33558928672115
H         1.39122368765411    3.57034676829205   15.13726717363623
C         3.78790332858459    2.17944598028472   15.55031805864697
H         4.55564230753365    1.97817914875192   14.79775663288380
H         2.88629231309915    1.62428019759694   15.30385541432714
H         4.15718842317193    1.84350489244858   16.52104250578043
C         4.35970687293109    7.02895753231715   15.81895020540120
H         4.79641946763924    7.15578140780946   16.81125301963936
H         3.61012935607607    7.80045953423617   15.66167711138821
H         5.15173496187151    7.13622262426245   15.07298195359004
C         9.63284515921133    3.59362732982901   12.29954922177773
C        10.72936497658264    4.27920104076218   11.79022788293883
H        10.59324758882125    5.22616512603027   11.28699845892009
C        11.99575490324414    3.73758600983387   11.93046647014889
H        12.84891207122483    4.26599187535249   11.53303099613655
C        12.16984319599110    2.52446647085544   12.57586350762684
H        13.15962915268192    2.10745973471234   12.67967974399578
C        11.07667562942887    1.84499133831891   13.09332232786900
H        11.21457014669549    0.90167386476570   13.59946962673617
C         9.81046987470146    2.38034477200632   12.96297075627568
H         8.94697572833415    1.86381267009365   13.36493311496309
C         8.07594536067349    5.80165969164355   11.32824184916058
C         8.19446000415229    6.94753749072515   12.11026221264369
H         8.18240007114388    6.85656262483297   13.19001159794639
C         8.33436749843400    8.18355598944402   11.50736800989607
H         8.43204689830193    9.07174042497095   12.11311149660655
C         8.34750817441030    8.27921193760529   10.12444625870846
H         8.45395543859047    9.24422576755245    9.65350351532919
C         8.22250269536806    7.14011315566109    9.34467863187479
H         8.23240620557998    7.21835244677424    8.26821037783331
C         8.08641074166453    5.89900840409622    9.94026740083856
H         7.98904528105941    5.00881040310120    9.33454460356055
C         7.14450227929211    3.11966710505576   10.97125076463957
C         5.75343466676653    3.14162623222563   10.90986379412894
H         5.20399683525335    3.78771507821485   11.58509860799485
C         5.08872092657653    2.34972397435360    9.99326271778999
H         4.01055414317762    2.37067103680834    9.94206855355795
C         5.80980730955181    1.52688895116328    9.14149068807718
H         5.29129025479651    0.90565398346701    8.42769411962565
C         7.19359473773057    1.49845730017277    9.20545591015696
H         7.75235624959051    0.85627552602234    8.54184052647550
C         7.86648589204397    2.29248751425805   10.11740272234039
H         8.94622062516108    2.27109291491806   10.16848549427779
N         3.74340525623430    5.73871601751570   15.69938666499899
N         3.48778087964581    3.58183645460394   15.58104645571322
P         7.93410971339629    4.21117650825074   12.18475532256542
Au        6.82152213991651    4.30804011708460   14.17481863268626

