54
CSD_code = COBSEU | q = 0 | S = 0 | Stoichiometry = C24H18CuN4OPS5 | MND = 4
Cu        3.57457405345948   10.50735424119583    2.66421281110849
N         1.69247449472948   10.29485952984710    2.51523649201571
C         0.96670720603585   10.21321617013427    3.63575142299819
H         1.46684001210278   10.51831800388684    4.54392466520794
C        -0.34382996451261    9.79622575528809    3.66101937617392
H        -0.88401783036832    9.76418465078575    4.59296434774795
C        -0.95963069667561    9.43598109633742    2.46019976540422
H        -1.98874435320507    9.11171188841142    2.44633683614168
C        -0.22457525335856    9.49822114467768    1.30220352304288
H        -0.64753302450264    9.20416996115615    0.35424225740422
C         1.11252287765079    9.92214302588235    1.34452135043094
C         1.91621949744137    9.91497516115518    0.16522581611199
H         1.44701161091008    9.71859613886166   -0.79882601847751
N         3.19518227480012   10.03276240259913    0.31285693902425
N         4.04239139941551    9.99140806730358   -0.71519143101429
H         3.69943120369311    9.96486781552401   -1.67545837550303
C         5.35074849956027    9.70875050085755   -0.42616473057322
O         5.70253105832358    9.55586725542341    0.74715932569065
C         6.26533431400798    9.55584748545277   -1.53000505124587
S         7.89427233017930    9.12546017158184   -1.12748751475601
C         8.32313406758981    9.11280546989678   -2.78257717277260
H         9.32853706203347    8.87564963587842   -3.06893053515668
C         7.27779333970927    9.42617926274778   -3.60156530492914
H         7.35195679302313    9.47243809965316   -4.67310422656895
C         6.09617496044040    9.68002408574095   -2.88998090012092
H         5.16903214337037    9.94730259637889   -3.36532188057132
P         4.22283940922234    8.34536340695171    1.96198965192228
C         4.26889926095315    7.20643072479390    0.54959494670609
S         2.87711362091540    6.89869023482443   -0.44686115101167
C         3.82415900284742    5.98680469838780   -1.55748099229871
H         3.34561228043172    5.53652497935320   -2.40409962437204
C         5.13064770377462    5.93970828346622   -1.19389714724848
H         5.88799426751719    5.41759462858743   -1.75092118437168
C         5.38851327995946    6.64730665293982   -0.00273128865908
H         6.36444485988623    6.73882577174021    0.44115003380506
C         5.66293718290341    7.75224375773514    2.86056974310929
S         5.75497819774435    6.10998944045763    3.44193265006923
C         7.30105460799659    6.41105557737642    4.12541606639542
H         7.81004728997424    5.61543125236967    4.63314965416108
C         7.71359811181046    7.68981865262446    3.92810437740337
H         8.65212614183724    8.07613009114046    4.28317324367401
C         6.77680240122115    8.45895834759916    3.20801296534555
H         6.90788893803306    9.49162344581029    2.94483072422219
C         2.97014052709446    7.46189797535192    2.96565271428771
S         1.61849248259707    6.55243583055445    2.37152103149869
C         0.97879523614159    6.38454986484967    3.95835573094270
H         0.07347973056406    5.82860940097448    4.09873341997757
C         1.75053709415411    7.00308323379215    4.88807019510449
H         1.52863457278883    7.00953066299626    5.94051378367885
C         2.87455325934406    7.63378312827642    4.32038899170121
H         3.60666418264279    8.19066390102795    4.88265144925227
N         5.04626522776384   11.45046006574317    3.07448586018845
C         6.09947793590476   11.83650889845260    2.70478250774736
S         7.51406511818743   12.40945747524066    2.32016985995123

