58
CSD_code = COBTOE | q = 0 | S = 0 | Stoichiometry = C27H26N2NiO2 | MND = 4
C         7.61585188033495    2.62359121939531   11.43892825060366
C         8.16463866282123    3.58595804920632   12.28303365927095
H         9.23600493974199    3.69182290526483   12.36208630250415
C         7.33921698018457    4.43144656208177   13.00123079259765
H         7.77162054542009    5.17842951136604   13.65120529215958
C         5.96224621032056    4.32849194834390   12.88688316653970
H         5.32260528448296    4.98961892538788   13.45308850416346
C         5.40913614633112    3.38269287117073   12.03857330399314
H         4.33607838453119    3.30599520218369   11.94117243239667
C         6.22937339531655    2.53942917681095   11.31480678303885
H         5.81775892309338    1.80022379026962   10.64447331605711
C         8.44930869855013    1.69352732994056   10.63880128979499
C         9.72745722584029    1.34011239839287   11.09132724797862
H        10.02597245136122    1.62939439026668   12.08510641706007
C        10.62336831823543    0.58266339808647   10.33958025589015
C        11.87222206124442    0.14210689290890   11.06070843628410
H        12.31515940681327   -0.73207522842111   10.59052902962864
H        11.61190109449204   -0.10565614147635   12.08804647169873
H        12.61053738291568    0.94199610786513   11.09431439113700
C        11.31460871533994   -0.27636365580362    8.20181844749155
C        10.78807356431398   -1.04451854815678    7.13415768384610
C        11.65279898498411   -1.61589056468184    6.20436267871048
H        11.27808120931885   -2.20588127512131    5.38268176567612
C        13.01404816968329   -1.39234713837345    6.29307645924941
H        13.67577923946037   -1.83269139344205    5.56294116583862
C        13.52098799532583   -0.56327883362935    7.28070747056698
H        14.57693150735262   -0.34011971939669    7.30813508572589
C        12.68235233637867   -0.00090333676295    8.22440651081255
H        13.08932772694297    0.69192799399222    8.94114131431016
C         8.74812107764521   -1.83373675821595    6.23520622652694
H         9.31974659560863   -2.49593173212595    5.58792840169820
C         7.35263227066851   -1.85577027681445    6.04728304464102
C         6.50688795748045   -0.98829200174556    6.80895012831314
C         5.12017597191733   -1.02965473531917    6.50420023569441
H         4.47154495648360   -0.37321625488978    7.06387499785255
C         4.62262103605377   -1.87373178821738    5.55612856053782
H         3.55812124040591   -1.86957108889275    5.37386149458475
C         5.44801418598344   -2.74663304708439    4.81276491122910
C         6.79156723552941   -2.71348273913703    5.07415112103750
H         7.47649576694809   -3.35016207299562    4.53593618884293
C         4.81402043928122   -3.66019321132365    3.77630581628530
C         4.09894699508389   -2.80394857157558    2.72170128342823
H         3.30820516702106   -2.20563983933750    3.16544365212885
H         3.65600971389926   -3.44092567031357    1.95881035583828
H         4.80651474411386   -2.13082188491564    2.24200169118452
C         3.80226829659742   -4.58126909511064    4.47262705356144
H         4.29980592632021   -5.17633885050845    5.23566846469128
H         3.34915804044140   -5.25581532393121    3.74902588622269
H         3.00927462322600   -4.01191555088963    4.94925583873155
C         5.84374789825117   -4.53801107931281    3.05983183793672
H         6.57179060184873   -3.93069496856358    2.52700098850553
H         5.33818607474921   -5.17070288858464    2.33307289459626
H         6.36326635810683   -5.18421386605992    3.76359167015449
N        10.36443554861376    0.22918689227565    9.08163240920418
N         9.39004534994723   -1.08167682605164    7.09316308220824
O         7.91484860864275    1.21758867709493    9.59440168874017
O         6.92931964413233   -0.20636863596850    7.72708665859745
Ni        8.64278023386824    0.05194035084731    8.35986949200180

