46
CSD_code = COBVUM | q = 0 | S = 0 | Stoichiometry = C23H18N2NiO2 | MND = 4
C        16.68811673237715    3.39106513029725    1.62780119346988
H        16.21707177430323    2.67604724698155    2.28508103016596
C        17.38764938803988    4.47044290010372    2.13116623012733
H        17.47302981660331    4.60733508777327    3.19916807176732
C        17.97738191587862    5.37867529573816    1.26668923314871
H        18.52438551957753    6.22384166408597    1.65822681169927
C        17.85670584488546    5.20628355988309   -0.10274276730024
H        18.30354511185722    5.92217190188627   -0.77736274890861
C        17.16274204846935    4.12397564299346   -0.61180385407540
H        17.05571804951357    4.01289498264834   -1.68019999076031
C        16.57951487277865    3.19919424452954    0.25086617403642
C        15.82247081770785    2.01952638757705   -0.23411424208904
C        16.13406184900248    1.45756449972551   -1.47909746845269
H        17.00915757362584    1.80611543972546   -2.00161706360206
C        15.40056804829580    0.42471465405862   -2.05936123664692
C        15.99672548392532   -0.17528769890306   -3.30767074450624
H        15.63597329854174   -1.18696001280837   -3.47425898055246
H        17.07922123711361   -0.20199274244930   -3.19870894900959
H        15.77137703903275    0.43287020121410   -4.18257406957605
C        13.37183034009064   -0.86427416824344   -2.16766640933097
C        12.54165984996458   -1.63264139739685   -1.31453816857279
C        11.62048218004364   -2.52012446538584   -1.86482765744238
H        10.98030661399627   -3.12051362978119   -1.23773203371686
C        11.47811650359907   -2.61166924171951   -3.23657542450705
H        10.75642398243160   -3.29711066249887   -3.65379447011219
C        12.21827959251926   -1.78811454917646   -4.06955706877761
H        12.05781647533573   -1.81606748181495   -5.13678927302513
C        13.15182658513206   -0.91454754561868   -3.54501799638864
H        13.66664367205713   -0.23933029174912   -4.20688416344930
C        12.07275366696474   -2.02857508428128    0.96909062564987
H        11.46786458651590   -2.88291800071193    0.67166777188904
C        12.08283193059308   -1.74759355740424    2.35003259812427
C        12.80411354263786   -0.61627987369720    2.85666476828064
C        12.71414509983068   -0.36034900453241    4.25264478845168
H        13.25064814930424    0.49600507585128    4.63126905385985
C        11.99116276186589   -1.17131370898111    5.07928719956842
H        11.94715386560222   -0.95708350104572    6.13757241963715
C        11.30015042961584   -2.28524102776501    4.57629355562603
H        10.73467989623004   -2.91336244437248    5.24734954954299
C        11.34742174147494   -2.56034872761426    3.23963067354835
H        10.81533902522722   -3.41192249061705    2.83816709311372
N        14.27557387882695   -0.03483438736793   -1.51303725908478
N        12.69943362978083   -1.34549659518355    0.04615983238236
O        14.95804380163554    1.54277317039190    0.55843379520110
O        13.51441217959864    0.15250661327449    2.12457058778528
Ni       13.84686959759621    0.09034859238115    0.30939898281414

