75
CSD_code = COBWEW | q = 0 | S = 0 | Stoichiometry = C32H32Cl2O6P2Pd | MND = 4
Pd       13.18687638898954    2.29706216880870    3.51191790705018
Cl       15.06327950164312    1.03365942999683    3.79462839888102
Cl       13.96217042555694    4.26728654344697    4.37567995116073
P        12.60310059170155    0.36244821614817    2.55949088473781
P        11.53710813217471    3.69789778839232    3.04922277362409
O        10.33275989566003    2.92364318800305    2.21540602191190
O        11.29823134403980    0.21991581664328    1.57386871568623
O         8.28727039143286    2.78844168131916    4.22901719725099
O         7.43267827597564    1.49193200065021    2.60796355458691
O         9.20451176732842   -0.63606930949536    3.76354061100916
O         8.84623987858245   -1.58386752395428    1.76800742961420
C        13.73056662453786   -0.39034692467869    1.35633189211685
C        14.63855560634215   -1.37427473294312    1.72667141853782
H        14.66850122727305   -1.72082059145201    2.74895730874220
C        15.51614543417504   -1.88507731273705    0.78769331720825
H        16.22130086563844   -2.65051774077076    1.07582293230907
C        15.49967146101259   -1.41140393136452   -0.51420682086245
H        16.19100510060661   -1.80974623020235   -1.24214238252810
C        14.60375062953644   -0.42054783361531   -0.88041536654314
H        14.59630365053504   -0.04424507643859   -1.89299486023899
C        13.72193468033079    0.09406232828141    0.05260892248944
H        13.01786379136750    0.86616706373308   -0.22634480117993
C        12.33264687912287   -0.86546960058883    3.87272392690481
C        12.38229559467514   -0.43163729213283    5.19289170887081
H        12.60432553180416    0.62308706789135    5.41053210291664
C        12.18486652054305   -1.33655313859182    6.22027072327707
H        12.23888269635424   -1.00965625538354    7.24841484119572
C        11.92519191625582   -2.66720137497469    5.92786123616657
H        11.77688019517511   -3.37483337077246    6.73035085061528
C        11.85252411532735   -3.09409679184788    4.61065762906188
H        11.64648051691807   -4.13128853383035    4.38917238939333
C        12.05518329892869   -2.19495023127112    3.57870321047521
H        12.00142306719370   -2.51207369874540    2.54590474625954
C        10.59738253073422    4.77070066812026    4.17313782229397
C        10.93229782697920    4.85684661443485    5.51685271554770
H        11.79080878376925    4.31084232973442    5.88528419516215
C        10.18177190135138    5.65707859645919    6.36066016692629
H        10.44424967718434    5.73216682613595    7.40529155148655
C         9.09746059827688    6.36283823597420    5.86615251045875
H         8.51722204361131    6.99306482073674    6.52440729642877
C         8.74750442883949    6.25643926758882    4.52820154887428
H         7.89377470428805    6.79870454400885    4.14708487116228
C         9.48982578783775    5.45507943380792    3.68099559022548
H         9.20882346847472    5.33909027298456    2.64298393128059
C        12.18926821409022    4.73043826736149    1.70636040481862
C        13.15240501328958    4.11472516001073    0.90538021523174
H        13.43686322308090    3.07130020044136    1.09589487850226
C        13.76479124971950    4.82098686660026   -0.11220258339620
H        14.51146320976163    4.34246696759618   -0.72853489781039
C        13.43285637134071    6.15040382871960   -0.32613206876398
H        13.91737168443643    6.70639743169989   -1.11489105046535
C        12.49867715896317    6.77144424685200    0.48486593308348
H        12.25865793978054    7.81339640386846    0.33219495014608
C        11.87920946674012    6.06847953715479    1.50496537429206
H        11.17440316382824    6.56706686432042    2.15345828813935
C         9.83160884139480    1.74749008536578    2.81228750509573
H        10.39699566579134    1.51657289058235    3.73724233618908
C         9.96083851990834    0.56002665613589    1.86008684228056
H         9.49305230111893    0.79857689332842    0.89637927063337
C         9.25520994396388   -0.67981988874772    2.43691875945629
C         8.55398820053244   -1.74293449148540    4.40867338608349
H         7.56128578612430   -1.86317836903395    3.96289841406825
H         9.13547015332357   -2.64919543443896    4.21124363582940
C         8.47405665884002   -1.44940856334763    5.89316237935873
H         9.47315838072781   -1.31715905854477    6.29903803394311
H         7.98958277084911   -2.27857568742592    6.40011490714819
H         7.90135458357601   -0.54322868243457    6.06742521720196
C         8.36515235904898    1.97311417738623    3.19249932327342
C         6.97690402023214    3.16299605061784    4.67821352930563
H         7.12466655093670    4.11075338189564    5.19887259870609
H         6.33474762399123    3.30662268079211    3.80400147000603
C         6.38595428114028    2.10862737871385    5.60028607257683
H         6.24231078027542    1.17842618343710    5.05594947398673
H         5.42372792751970    2.44984201340933    5.97073434278531
H         7.04942020759068    1.93506860161555    6.44405248774223

