67
CSD_code = COBWAS | q = 0 | S = 0 | Stoichiometry = C32H28Cl2O2P2Pd | MND = 4
C         0.13086759792169    4.60952683590246    4.31314712594479
Pd        0.57490536618688    1.79250014356850    2.89287656198130
Cl        2.19016344787451    0.18199039423814    2.82721400834224
P        -0.64985971587533    0.03374385792850    3.47506291938980
P        -0.78546919196067    3.52116197561844    3.18692180003051
Cl        1.83821782336979    3.50467803907592    2.05097650056689
C         0.25553103070323   -2.99136750703460    6.78500355132187
H         0.48285089242222   -3.69887138534533    7.56894670263523
C        -0.32543730950460   -1.17440120293648    4.77700621478404
C        -0.41390012084110   -0.37496539439460    0.73894646357096
H         0.09028287160092    0.60268424048892    0.73855803092763
C        -1.62884656842049   -2.86909951744891    0.75913041065940
H        -2.09917190161945   -3.84143341071880    0.76361801264363
C        -0.83319724413777   -0.93892075900677    1.94019100174537
C        -1.41415220290392    4.44262141974069    1.75379293167269
C        -1.45028030374346   -2.18406423281808    1.94738429803052
H        -1.78029134233231   -2.60757373954848    2.88607049655138
C        -0.59557233240146   -1.06467889856293   -0.44671158569910
H        -0.26099798468012   -0.63455725102859   -1.37895798136490
C         0.94240269201199   -3.04543366115292    5.58233776699851
H         1.70524566400668   -3.79383770847078    5.42780064888058
C        -2.34194691010982    5.46576809133819    1.91721606635166
H        -2.66990830381357    5.73560504062915    2.91198458066436
O        -2.08875098556523    3.41127819959658    4.15822721341844
O        -2.21403311657710    0.34767130064536    3.85783820947348
C        -0.71982144020774   -2.02784901273572    6.98387606028073
H        -1.25498377013156   -1.98360740890832    7.92136078190943
C         0.65724480164817   -2.13965718271522    4.57734898606776
H         1.19959444348968   -2.16135578479069    3.64369336261994
C        -5.03522979479582    1.82805357595549    5.56897103160082
H        -5.73590615826840    1.93607968150272    4.75321259052799
C        -1.20031467098359   -2.31151527425348   -0.43524636319205
H        -1.33557148168736   -2.85222566068031   -1.36025495004083
C        -3.69650294272480    2.13904826625330    5.37155933194631
C        -3.21716331620363    2.56946638717871    4.00407493987200
H        -4.00372533045878    3.14497648858624    3.49254993640505
C        -3.24032586967185    1.56041094452418    7.65794407702539
H        -2.53620230559435    1.45656368181847    8.47022379187542
C        -2.80057770373682    2.00177540402130    6.42164677954168
H        -1.75993247355027    2.24811847824981    6.26807042077970
C        -5.47158540762221    1.38350208569752    6.80394296728252
H        -6.51418978308149    1.14359495830847    6.94994929751253
C        -4.57468971431043    1.24818623733972    7.85064517363386
H        -4.91694422185530    0.90192694191485    8.81440333144386
C        -2.93947919981401    1.32215837651371    3.14542543456537
H        -3.89440962571894    0.86979966948255    2.85881511115679
H        -2.40584088367028    1.63544285479378    2.23148547275985
C         0.88640512795760    6.70540738746939    5.18825968511341
H         0.88703119950306    7.78520866887508    5.15876691965859
C         0.11817130439783    5.99466078026199    4.28041015700144
H        -0.46599492383929    6.51434876335054    3.53543802580796
C         1.66145723497772    6.03869563819680    6.12120007495908
H         2.26414361315697    6.59895173745571    6.82068161464901
C        -1.02347645185451    4.04976347795552    0.47980535664921
H        -0.30658664753499    3.24011965478298    0.37274419089177
C        -2.42835237069710    5.74738026865840   -0.46351971438176
H        -2.81673504076380    6.26517527457294   -1.32807173064256
C         0.92371022082387    3.93669613555327    5.24287123388223
H         0.96085800029005    2.83628835195301    5.23508842312313
C        -1.52658636429699    4.70764916689287   -0.62757496588467
H        -1.21642890467501    4.41246079924899   -1.61871182809375
C        -1.00989415857538   -1.11445487814651    5.98611517421176
H        -1.77063942306143   -0.36337100764028    6.13543188233148
C        -2.84074527611661    6.12119938906350    0.80600154549241
H        -3.55225618301306    6.92487184305965    0.92866591532886
C         1.68295620118702    4.65192506283673    6.14831005246633
H         2.30336783947285    4.13360490723166    6.86460847236057

