67
CSD_code = COBWUM | q = 0 | S = 0 | Stoichiometry = C30H28Cl2O4P2Pd | MND = 4
Pd       10.46882863405896    4.21875456664902    2.62563812408888
P         9.55544823547105    5.52656222071496    4.21931403919539
P         8.54722218938906    3.41203679555664    1.80924126910382
Cl       12.45444522719466    4.51951398879693    3.75317092199142
Cl       11.52694265262518    3.34460172640530    0.81083162816623
O         9.28578217246464    5.14783381419004    5.76808853524164
O         7.25943582398836    3.59429906099553    2.79793181071550
O         6.76786209276559    4.20358009001029    5.71343734922979
O         9.20854388319983    2.44537782572967    4.39024257833187
C         9.72903882882513    0.89275317276496    1.99721526634809
H        10.56308396381298    1.42040636491888    2.45504742249975
C         9.76541865043551   -0.48118933259587    1.83735017998673
H        10.62754660027909   -1.03898744724054    2.17134834733655
C         8.70114384239072   -1.14082749627237    1.24366901430650
H         8.73351950086539   -2.21303511792685    1.11649685073092
C         7.59584498682702   -0.42852810937910    0.80571754663980
H         6.76924410792495   -0.94401224285589    0.33838114706153
C         7.55477186715753    0.94584084514740    0.95807300491313
H         6.70209369250459    1.51221132359568    0.60631733521492
C         8.62293445156661    1.60663664668795    1.55418756663932
C         7.78525810005998    4.02140588604651    0.27616844887472
C         8.62900748182913    4.23648474247315   -0.80918839184174
H         9.68647278622262    4.02957625623489   -0.70437162942258
C         8.11332586948751    4.71066471078118   -2.00149715483998
H         8.76950650922664    4.87389581538296   -2.84334192253754
C         6.75841539769812    4.98012676730946   -2.11413379517542
H         6.35608005909520    5.35286209695930   -3.04477235357981
C         5.91966781262571    4.77797814252696   -1.03023212109686
H         4.86426652522049    4.99438314092783   -1.11493442495139
C         6.42843176082148    4.30172929964062    0.16496648114377
H         5.77782729558587    4.15915647534382    1.01507038163978
C         6.81368517656420    2.77135670865823    3.84226647079897
H         6.27465460877217    1.91290378468926    3.42386470012957
C         5.91642310622644    3.63325168349151    4.74925934058686
H         5.44493206177427    4.44763716767490    4.19928884889759
H         5.15355111762482    3.00592990261367    5.23230444363879
C         7.73066143572937    3.24649364929228    6.06207134729211
H         7.41757903418300    2.69881748867774    6.96293588277038
C         9.15018874706349    3.83899480229592    6.26572067552387
H         9.41195085351593    3.90261980242855    7.32573577130817
C         9.99899301692777    2.80734715486902    5.51537781263254
H        10.95290461287916    3.21528421386263    5.15112682261398
H        10.17209618793085    1.92657975542777    6.14784666261452
C         7.89128357099347    2.29692202235945    4.84509840861506
H         7.70737776832532    1.24774823371239    5.12093491360414
C        10.58592266398372    7.00871500628444    4.40229811011196
C        10.71835877558320    7.71233180245713    5.58919685630493
H        10.22461750742500    7.35451586852717    6.48023199174430
C        11.49995419920852    8.85480782067143    5.62169971550013
H        11.61670701615495    9.39942399139440    6.54751399602359
C        12.13533286013413    9.29696191305758    4.47389710070803
H        12.74883555968510   10.18536937551439    4.50586544944372
C        11.99725211094086    8.59611007785897    3.28491442521960
H        12.50472269024574    8.93632493699533    2.39439844801166
C        11.22362451229663    7.45271171113573    3.24742449208744
H        11.14016918706260    6.87055697397220    2.32463867141483
C         8.05191146582751    6.38654698582093    3.64526284198685
C         7.96926403423517    6.62687099716102    2.27819823139425
H         8.76297020912348    6.27133543579027    1.62066323491164
C         6.88841687386727    7.31299701130060    1.75778375067517
H         6.82216619448054    7.49009539103418    0.69432718995293
C         5.88843921178886    7.76475658700274    2.60513713976096
H         5.03716739554212    8.29250968822976    2.20044138123406
C         5.98264544390443    7.54716975136457    3.97029631618501
H         5.20743229762344    7.91139360362724    4.62920657455486
C         7.06795501184359    6.86723421822063    4.49607543536345
H         7.14554247891334    6.68758245301441    5.55706309043312

