95
CSD_code = COBXAU | q = 0 | S = 0 | Stoichiometry = C36H46CdN8O4 | MND = 6
Cd        3.71138748055778    4.62785304380083    0.00003227990593
N         4.94004516142489    2.80315937649678   -0.66139653049556
N         5.76723616345077    2.24176478333057    0.22839605570157
H         5.79462944195279    2.56608403828381    1.20950738343588
N         2.55308101760145    3.49211415671679    1.62777047340832
N         3.24242873403693    2.98659233852444    2.65743938447673
H         4.27529963607089    3.01131820917764    2.67162119196953
O         5.37034543731353    5.16872687667996    1.57057722441631
O         5.93110227194708    3.34407316927840    2.70002624272459
C         4.52018511260776    2.62698160512458   -3.09318411001810
H         3.54676022211158    3.04205940506364   -2.85059429962856
H         4.39664995043190    1.75520381422681   -3.73210869933416
H         5.09495220721536    3.37444137641877   -3.64147173041540
C         5.22447497811613    2.25496014179265   -1.83838558577395
C         6.26133451123815    1.32270619611620   -1.68720453248307
H         6.70449134829268    0.71967445314476   -2.45346246946105
C         6.58898435020678    1.34901187339505   -0.34484673265178
C         7.59707137448002    0.59291854428927    0.44129499743647
H         8.53090623120427    0.51454452874189   -0.11097166677764
H         7.24110525196392   -0.41644622711142    0.64809459960148
H         7.77999583626466    1.09567945418226    1.38797719468036
C         0.17464780363490    3.88026335416129    1.06851069776013
H        -0.13958320556193    4.88442199905229    1.35582887956693
H        -0.68630525455561    3.21925055877590    1.14202888002888
H         0.52951589888218    3.90381617408776    0.04272770238312
C         1.26816219417957    3.40887991589007    1.95782506417430
C         1.14362473942716    2.83622671926436    3.23200632846705
H         0.23600002942501    2.63730955298578    3.76478865653889
C         2.43620288216403    2.58593276828676    3.65251780205756
C         2.97037857194750    1.99008026055030    4.90379218075252
H         2.81937357231950    0.91069274857817    4.90789959768567
H         2.46108229067525    2.40441433573334    5.77132348720114
H         4.03581107717916    2.19215591347728    4.98299816573411
C         6.03667615114567    4.57616441296073    2.44614143599461
C         7.02470450450657    5.37541388526220    3.24338126529898
C         7.79727149484353    4.75820053010778    4.21891402798371
H         7.66936132725997    3.69798612374768    4.38474097979330
C         8.71401510244700    5.48362203905351    4.96380453606851
C         8.84440178291068    6.84559298230297    4.71524155327960
H         9.55605302666468    7.42308710406427    5.28909849344386
C         8.07771601836381    7.46775888999548    3.74432445227277
H         8.19477975867960    8.52697603661707    3.56501548358938
C         7.16682014772669    6.73765822145554    3.00517862269513
H         6.55961810904864    7.20113706753387    2.24183808602485
C         9.53433857848568    4.82207342964907    6.03039121295996
H         9.08147631152332    4.99132847784403    7.00801746729150
H        10.54221825856164    5.23154333056010    6.05367951867030
H         9.59199918325791    3.74904755132264    5.86503346667949
N         2.48258764932652    6.45240779629548    0.66157164845898
N         1.65563337272284    7.01411367668552   -0.22827832375458
H         1.62821019556875    6.68983069994808   -1.20941223595452
N         4.86979448392904    5.76349039744971   -1.62777117071651
N         4.18043329290099    6.26912715667993   -2.65737845138930
H         3.14756410245837    6.24455136704800   -2.67148191306121
O         2.05248578514622    4.08721413988452   -1.57051949116506
O         1.49172322783133    5.91191436265742   -2.69989558694910
C         2.90244179281658    6.62852872931057    3.09335164721058
H         3.87585964638004    6.21341780741438    2.85081174213397
H         3.02594592202036    7.50017011247545    3.73245623802940
H         2.32754368380976    5.88100469953018    3.64139504632344
C         2.19833196788826    7.00080876954524    1.83853039247540
C         1.16176021708516    7.93336693422687    1.68728978137058
H         0.71877831684210    8.53658615576785    2.45350642182269
C         0.83413608557561    7.90711831430974    0.34491789681742
C        -0.17372907742915    8.66344687601231   -0.44128012170480
H        -1.10742823040648    8.74246050211680    0.11113408403708
H         0.18269637691713    9.67257185933985   -0.64849824870968
H        -0.35708210053298    8.16046869026076   -1.38777731306681
C         7.24824648281207    5.37517723094728   -1.06865818131705
H         7.56240106772885    4.37102269053858   -1.35606647318993
H         8.10923381478433    6.03614399451834   -1.14218657067356
H         6.89343789307969    5.35159292211447   -0.04285683979837
C         6.15470577112084    5.84668498843108   -1.95787460528565
C         6.27921796773056    6.41941215826639   -3.23202986913763
H         7.18682198483037    6.61835733952649   -3.76482867881469
C         4.98663674506954    6.66981544189002   -3.65246397283961
C         4.45245912614883    7.26582068079238   -4.90365914625444
H         4.60365738051045    8.34518330674034   -4.90771466309975
H         4.96161924568279    6.85145595689839   -5.77125399533049
H         3.38698299059248    7.06394627287856   -4.98278974207911
C         1.38589535703341    4.67988171168742   -2.44581470569128
C         0.39817455007780    3.88058776930251   -3.24336578271583
C        -0.37438014915837    4.49784972516139   -4.21887639978290
H        -0.24661922849625    5.55811171895678   -4.38450229289638
C        -1.29099700259906    3.77242625360274   -4.96392081054832
C        -1.42120124812702    2.41040285017534   -4.71559090192858
H        -2.13276259150935    1.83289016777441   -5.28954643532022
C        -0.65454195247646    1.78818478418698   -3.74467389691162
H        -0.77147190638462    0.72893088741910   -3.56553469134084
C         0.25620658817324    2.51828216097168   -3.00535825729316
H         0.86344996121011    2.05477351778373   -2.24208131163219
C        -2.11137039957997    4.43405644859415   -6.03041337494939
H        -1.65829999702376    4.26524699642987   -7.00802775174932
H        -3.11913137946892    4.02428849488743   -6.05400165733400
H        -2.16938485624801    5.50701894157142   -5.86473974940559

