99
CSD_code = COCBUT | q = 0 | S = 0 | Stoichiometry = C39H55FN3Nb | MND = 5
C         0.00894901876641    4.71141669134175    5.31156818940662
H         0.17411920619490    4.25772548180109    6.28842830480885
H        -1.03595712217972    4.58383081216667    5.04151320767456
H         0.22303869627296    5.77353532691666    5.40586194957089
C         0.91549907658847    4.07615954543950    4.28264803052731
C         0.29098560510254    3.31360926794395    3.30972820039474
H        -0.78966682442872    3.29182357587975    3.34703284354811
C         0.85908611859025    2.45070885027736    2.35179998188144
C        -0.13916702510993    1.56402205701145    1.64207160859667
H        -0.75374346976236    2.16934709795930    0.97598329068750
H        -0.79963390062025    1.09356848846699    2.36913451399735
H         0.35247842449387    0.79001401575200    1.05720832531056
C         2.66642923566027    4.82771963956685    5.62146920265395
C         2.86929022493255    3.98438852454948    6.72582807144251
C         3.32820805299741    4.52658552053834    7.91775493942891
H         3.51075944556850    3.88176555538162    8.76364166223931
C         3.55143085667990    5.88380309457741    8.04075462959573
H         3.90983483336709    6.29248144093219    8.97366218276832
C         3.30360160791754    6.71423625851733    6.96642479596699
H         3.46424152229742    7.77599953151897    7.07311115812509
C         2.84854556195695    6.21202626351516    5.75425516639060
C         2.57664185332669    7.16940233081282    4.61545906995019
H         2.08895576002375    6.62070247088157    3.80435207787082
C         1.65588977841911    8.32069564248534    5.03150108608491
H         0.74409316110650    7.95290015245701    5.49886572810496
H         1.38054514463749    8.90185824033210    4.15404106466703
H         2.14976408491753    8.98628225718129    5.73453440967042
C         3.89815274082536    7.71714581750506    4.07329392685378
H         4.41902735158870    8.28865481947251    4.83853336489623
H         3.71396473775501    8.36474435929652    3.21868828523698
H         4.52232935842998    6.88350818996307    3.75529768797311
C         2.63180884202888    2.49213349504326    6.62524599044964
H         2.04345088932614    2.28523364603049    5.72237113539365
C         3.97836671259492    1.77851448586963    6.48523823632854
H         4.48152482668671    2.12888077148973    5.57994373178001
H         3.83111698033295    0.70173530255943    6.42444441967094
H         4.61129581486357    1.99118626332447    7.34482953334613
C         1.84741211341304    1.94174505686923    7.81873044889007
H         2.44530022376491    1.95637448234592    8.72607584584930
H         1.55632557697975    0.91088370788897    7.62618524309091
H         0.94547621984785    2.52517691124401    7.99361497650681
C         2.60753559004543    1.43245180352508    1.17593221183185
C         3.15989634649300    0.23415547513798    1.64672496608009
C         3.60953062566792   -0.70491035216972    0.72981747103851
H         4.03342750481349   -1.63353034256729    1.08201551746135
C         3.52643542562013   -0.46985394064796   -0.62799369110254
H         3.87612946853365   -1.21251203729430   -1.33004645550206
C         3.01496147710358    0.72951019062704   -1.08293068565975
H         2.98002171067066    0.92157612038626   -2.14464696819754
C         2.54684670488527    1.69232718782551   -0.20133805941604
C         2.05457681041191    3.01733791038240   -0.73707400310287
H         1.66457258100583    3.61878741700220    0.09121071677162
C         0.93065146176985    2.84692643691450   -1.76087115647716
H         1.29066790052393    2.34877662350432   -2.65768796868813
H         0.54312239810965    3.82261678638152   -2.04835307151274
H         0.11341942493887    2.25690277066267   -1.35022017054376
C         3.23220039793117    3.78013404021261   -1.35097057178574
H         4.04397990548939    3.85885040599298   -0.62924447491763
H         2.92529800964506    4.78421407339431   -1.63849802426751
H         3.60650994067990    3.26368499294255   -2.23210677576771
C         3.32334210217674   -0.02875908733044    3.12810777601210
H         2.87263693106505    0.79893886900297    3.69652715236022
C         4.81817224909793   -0.07340885554962    3.46245566810552
H         5.31169392516495   -0.86473012875668    2.90259006090574
H         4.97134776388605   -0.25908340742156    4.52370742322309
H         5.28446143893008    0.87823527004240    3.19740571900693
C         2.61784898428268   -1.31720871520966    3.55532339766349
H         1.56319110505231   -1.28437401673219    3.28610832619552
H         2.69372622195869   -1.44700453107023    4.63358826732277
H         3.06503591325096   -2.18522387667863    3.07730394145094
C         6.40883844707539    4.52290709959226    4.40315034588335
C         6.35615440314321    5.09635208600738    5.82997680380591
H         5.88522640724279    6.07488741369602    5.82065949698530
H         7.36094589348564    5.18675209878556    6.23510112865276
H         5.76907530182377    4.44401113658359    6.47051011956703
C         7.13674142057917    3.16079263238569    4.41289496706602
H         6.68441912426015    2.49443757016718    5.14322989437420
H         8.18724079415247    3.29182414601403    4.65990747407611
H         7.05156146823525    2.71636572823192    3.42150298668515
C         7.19947213982973    5.47792295787228    3.48579895257946
H         7.22021237309267    5.05746148345557    2.48236601586798
H         8.21752880035393    5.59421706732550    3.84909618904837
H         6.72101259212365    6.45315057248131    3.45391175338444
C         3.38019777712721    5.51353076529293    1.65024375076902
C         4.39553442035218    6.17423344979783    0.96493553686137
H         5.42568438604525    5.89121314061634    1.14758990107517
C         4.11702326295311    7.18006947163720    0.05225411426823
H         4.92519623378978    7.67639678102263   -0.46616157268456
C         2.80600477176049    7.54788096849222   -0.19842811586881
H         2.58401401166463    8.33284843882599   -0.90723907699501
C         1.77984933878538    6.89612024010979    0.46186682723200
H         0.75077610771103    7.16870206682485    0.26903554518502
C         2.06805965587309    5.88844741836133    1.37100210744350
H         1.23135711504063    5.39987947857886    1.86815783509941
N         2.23697762047426    4.24189882896076    4.39033783082163
N         2.13784749825133    2.38631893468435    2.11070602038455
N         5.11757580611011    4.32984043540288    3.86521523112450
F         4.82455552425963    2.87204161411679    1.56886788785437
Nb        3.71840566906021    3.73214344906190    2.94554699332451

