99
CSD_code = COCGAE | q = 0 | S = 0 | Stoichiometry = C39H52F4N3Nb | MND = 5
C         9.72068194117480    1.04287868589711    2.96668663206522
C        10.20410318857340   -0.13906105600963    2.43308150547021
C         9.58510735901131   -1.36291940548391    2.65764810555827
C         8.45065654039127   -1.43481240977973    3.44961160506173
H         7.98335813423367   -2.39245394527568    3.61148189337271
C         7.94917902099207   -0.28308401410172    4.03558125703373
H         7.08275609297546   -0.31284457773941    4.67696606322579
C         8.61229137996494    0.90014739036970    3.78225208564008
C        11.32066380103769    7.30557082502447    4.46157525630253
H        10.54427476258673    8.06905530716557    4.47341661530453
H        12.15011527305763    7.68595272022797    3.86728675168040
H        11.66274819098484    7.13225609267943    5.47873550688564
C        10.79296328027059    6.03889135487939    3.82714240404552
C        10.17852533183733    6.21941281566219    2.57382420504721
H        10.28283320715925    7.21601644785311    2.16395889036829
C         9.29100694065594    5.39344937134236    1.88886210933585
C         8.59744199529609    6.04621597444427    0.71249092898695
H         8.26439292898390    7.05087338800255    0.96334980618987
H         7.74905442361786    5.46298244062849    0.36535431697105
H         9.31824011124213    6.13716026693266   -0.10060361551949
C        11.38262262390091    4.80540798598505    5.75828944500592
C        10.50170784848306    4.78237748904377    6.84783310280048
C        11.01447635590725    4.75786117657444    8.13759452798082
H        10.33903322575530    4.76174467300568    8.97934998540794
C        12.37517335974968    4.73615912019705    8.36301222629495
H        12.76052185934733    4.72780615890755    9.37183051927997
C        13.23848514858757    4.70912407510657    7.28626581148521
H        14.30224726698601    4.67018350304149    7.46474736953247
C        12.76806879520294    4.73919687485793    5.98117757273960
C         9.00434650875344    4.79689982388741    6.64939312190304
H         8.78914355532581    4.64980512058968    5.58427417198676
C         8.43789433820621    6.15342603850725    7.07601700889520
H         8.67463343989009    6.35441534321788    8.11864724961066
H         7.35618087728279    6.17208149676600    6.96308843700773
H         8.86146405625955    6.95205630093124    6.46949664739278
C         8.34531213603638    3.65132308400286    7.42001588688055
H         8.45321290382289    3.78147736409122    8.49389077269887
H         8.80393948148759    2.70455118267484    7.14146375480282
H         7.28337203038528    3.60287056851921    7.19219687716533
C        13.75860436254066    4.66377627949826    4.84408933949898
H        13.20203176636731    4.66896050550664    3.89916897793348
C        14.72844828036566    5.84888844604967    4.86308827574123
H        14.19278149456749    6.79495173367941    4.85257024361672
H        15.38001200184157    5.81347804962358    3.99219495715971
H        15.35326356757915    5.82267567364811    5.75268829763238
C        14.53109716131786    3.34333174833374    4.92659808232481
H        15.27843076104168    3.29578918095271    4.13690260947935
H        13.84199686948132    2.50747535881326    4.81766037400691
H        15.04348746716394    3.24753247829501    5.88087760154049
C         7.78077976130990    3.58248809627402    1.78139353905756
C         7.70392169198320    2.65655881000643    0.72417635710577
C         6.46547357115904    2.14212234858778    0.36152446964318
H         6.40705140119204    1.43707591566345   -0.45205697334448
C         5.30663477409102    2.52751975713740    1.00238709685753
H         4.35293760490315    2.12084997557553    0.70080432926469
C         5.38017420306967    3.45210614667022    2.02265390092272
H         4.47170937571734    3.77010297245426    2.51005881627520
C         6.59534173087160    3.98833823300811    2.42641399712475
C         6.57964393294891    4.99819468690899    3.55329474084441
H         7.61065558155618    5.23452894753057    3.83821100351079
C         5.85669665594739    4.43225217638794    4.77799398533859
H         5.94436073186570    5.12305674841976    5.61304584446009
H         6.28408391501388    3.47614136209347    5.06458165469810
H         4.79813354914969    4.28748995927132    4.57746267442234
C         5.89952795746086    6.29834815297816    3.11482596657927
H         5.92643649610784    7.02317016663517    3.92615330685881
H         4.85983962206681    6.11657888280114    2.85229377847914
H         6.39702386492581    6.72979437465646    2.25134976961680
C         8.90532308440324    2.24873354250861   -0.09657514837286
H         9.81180270532205    2.48592989608463    0.47170651700739
C         8.92066599858886    3.03714105153706   -1.41198472743387
H         9.05342307768901    4.09941354423621   -1.23166171848695
H         7.98369890928612    2.89552800746663   -1.94807095789836
H         9.73458085570154    2.68938996360867   -2.04309271481196
C         8.90372957040770    0.74958817765918   -0.41834284486287
H         9.90953173418706    0.42464957117353   -0.67210150919941
H         8.26035680233196    0.52998656248313   -1.26776009331285
H         8.55831077144810    0.16817192816215    0.43307990683905
C        12.84927748968454    3.33599811310899    1.03298734697904
C        13.89863306997673    2.26510830020962    1.37863046604997
H        14.76218800501194    2.35054777409918    0.72381959664718
H        13.45382113896963    1.28019276378309    1.26626044225253
H        14.20835997973937    2.38271848345892    2.41193642354274
C        13.48239492330244    4.74316551619176    1.06371252079312
H        12.69307609725630    5.49307453263416    1.03369284043793
H        14.13852889521991    4.87806553309717    0.20752352113670
H        14.06219267384743    4.87916933558367    1.97071589435137
C        12.32651132167130    3.07189158740111   -0.39174097476111
H        11.58775925508997    3.82199664305926   -0.65976472287254
H        11.87635126882518    2.08484769615046   -0.43500850746373
H        13.14936694542989    3.11323623790332   -1.10108785816266
N        10.86047525682900    4.88289091171210    4.43916725512513
N         9.02589152975462    4.13109205538873    2.21922885415521
N        11.79334902874835    3.27314420486241    1.96761935212014
F        11.39019009411186    2.13577774177168    4.78269142588399
F        11.31581198170071   -0.05346025974622    1.66464325104153
F        10.07338176268504   -2.49358479829009    2.10964339119923
F         8.19599172534839    2.06818187449188    4.38517389253678
Nb       10.59441417842180    3.03068128812437    3.24876505101375

