99
CSD_code = COCHOU | q = 0 | S = 0 | Stoichiometry = C38H50CdN6O4 | MND = 6
Cd        2.92542342751934    0.57739206612919    7.44663209088433
C         3.65098600857083   -0.90752634682357    4.94984277996743
O         3.38712053662710    0.27069804708687    5.29904557994907
O         3.85605064483655   -1.83521959649122    5.77595803684677
C         3.70998671329451   -1.19342584280494    3.48305271925811
C         4.33124271941234   -2.34765535342411    2.96124348562083
N         4.93292186081123   -3.23176747932459    3.81037519320922
H         4.63157745792839   -3.11983842223048    4.77880834170131
C         5.74377384934818   -4.31386850878025    3.47625857708579
C         6.86720972366243   -4.17568321238620    2.64800402832286
C         7.61645146832329   -5.31011570226672    2.32758537329004
C         7.28198523520256   -6.54123694247971    2.87462446608739
H         7.86979538116746   -7.41221690688280    2.62312868506528
C         6.21871929910011   -6.65877451333603    3.75190610969418
H         5.98213854461703   -7.61623362102544    4.19246085177960
C         5.45077041568147   -5.55235181821780    4.04686270609555
H         4.60509721094057   -5.63051658064394    4.71488659972727
C         8.79766613285262   -5.20339666267002    1.40894532867179
H         9.18140469180758   -6.19084900098047    1.16483473131192
H         9.60011523278344   -4.63277875361335    1.87737629150984
H         8.52507566016210   -4.69657417157543    0.48463393415829
C         7.30068201007637   -2.82817732928297    2.15084490976675
H         7.05379206233473   -2.69168829133504    1.09766247910635
H         8.37888619133432   -2.72052847359232    2.25717911552176
H         6.81784831376222   -2.03434624026636    2.71389592958566
C         4.28347733498916   -2.56930906280216    1.57871853815031
H         4.70527929309819   -3.48182955754637    1.18481822097888
C         3.68036817363731   -1.66085376076950    0.73781031694292
H         3.65093488081789   -1.85624502840319   -0.32500856691608
C         3.10205254258149   -0.50550855493609    1.24647464649296
H         2.63496423236200    0.20813337137035    0.58433962033883
C         3.11568177073185   -0.28968494151200    2.60914410468321
H         2.65866016609600    0.59373259752529    3.03090712689766
C         1.88632377547999    1.84724196192964    9.96493321366844
C         1.73648337182369    2.06084379625726   11.43628388735586
C         0.71172906397962    2.85531597330413   11.99625605340458
N        -0.25902198660276    3.37109963850727   11.18861319660199
H        -0.02312247353969    3.28953878076495   10.19680176442677
C        -1.29903436614328    4.22881749651179   11.55629829265140
C        -2.28296985308424    3.85032369804365   12.47908407067067
C        -3.28138952601268    4.76593773724026   12.82022355740246
C        -3.31906083071417    6.01152592414565   12.20905521197948
H        -4.09564690682089    6.71278752734080   12.47851759276204
C        -2.38557427352207    6.35544929449825   11.24782782258657
H        -2.43687631789192    7.31851102968198   10.76137065353363
C        -1.37865245981615    5.46978241300476   10.92614653134854
H        -0.63101080889124    5.72943158152453   10.19038703000594
C        -4.32657414548759    4.40231029282661   13.83238789925535
H        -4.95479825472285    5.26029749057618   14.05827375562231
H        -3.86658543085558    4.05422880612703   14.75604808499519
H        -4.96381662155303    3.60139232013593   13.45679732524900
C        -2.30492257687686    2.46753011237274   13.06029319196059
H        -1.60430187729031    1.82011079195027   12.54123892584255
H        -3.30380266902026    2.04246129210728   12.96983874429393
H        -2.04279683630064    2.47502403769847   14.11831098052674
C         0.74384690715625    3.11466604941280   13.37378471112515
H         0.01318053329119    3.78939261503359   13.79266116861933
C         1.70404170511052    2.54679991940962   14.17979485985167
H         1.70397199560696    2.75968059294754   15.23968422900258
C         2.67572355565284    1.71414916142099   13.63960264369284
H         3.42195897386430    1.26120322265892   14.27507655254867
C         2.69273986340727    1.49950741790617   12.27801375720122
H         3.46351413488974    0.89291985250842   11.82569461925367
C         2.06085157684259    3.13804914378728    5.67546032493090
H         2.54073600222898    2.60806841774997    4.84884125770931
H         2.12551089701858    4.22114456423530    5.48175708611194
C         0.58136747976916    2.76089998475509    5.74486229685172
H         0.06958830125226    3.24085593327531    4.90779406325675
H         0.15687443180872    3.15650034127486    6.67148790780050
C         0.30122524466516    1.26157481201104    5.67178573206453
H        -0.77851416470057    1.11832081842614    5.48858521189544
H         0.85142865233351    0.82184202686074    4.83457357087799
C         0.21574168228332   -0.79941485615274    6.94822479981876
H         0.56792709436000   -1.32483187809225    6.05170409827885
H        -0.88719397435704   -0.84506283241547    6.96190565969818
C         0.77135487528328   -1.49388207179096    8.19026650361907
H         0.45314121952529   -0.94413120635873    9.08471261069364
H         0.36429256222030   -2.51811212563967    8.25393173544349
C         2.82687550329190   -2.03286374001112    9.36040249401608
H         2.34921276883507   -2.99270552827606    9.62579212169218
H         2.65091127511397   -1.32503918880854   10.17600175786898
C         4.32659037664861   -2.27025122529692    9.19820519025174
H         4.66533687189328   -2.87692149223704   10.04084524454327
H         4.50053501717721   -2.83929118290956    8.28101681588483
C         5.17197355952259   -0.99774254465304    9.16035116939768
H         4.88039557253864   -0.33613694489244    9.97973668882596
H         6.22633896704909   -1.28649650332870    9.30068997722692
N         2.76465628299146    2.78728782549540    6.90943399095381
H         2.19821561182616    3.07339710623741    7.71143875294301
H         3.65544861098957    3.27693387442090    6.95134337697143
N         0.70203320013064    0.56919466784778    6.89032549850542
H         0.35170328371345    1.09506215849586    7.69699728460820
N         2.22428746838156   -1.48803457014173    8.14982311104477
H         2.55017458005925   -2.03275171740955    7.34581198396616
N         4.99459554280061   -0.27024638947085    7.90340179802814
H         5.03844240250892   -0.93224167397157    7.12541614130927
H         5.74106479358695    0.41167085804770    7.78970611823638
O         2.89054982196451    1.19819120059811    9.57437288138035
O         1.04323175611594    2.33402770773120    9.16424206478379

