73
CSD_code = COCHIO | q = 0 | S = 0 | Stoichiometry = C31H36ClN3OPd | MND = 4
Pd        6.66924039163070   14.11208031668019    1.78795272167188
Cl        5.56514611283848   12.36303883492061    2.75336854130169
O         8.66046566390736   12.35639486145790   -1.35717017395884
N         7.65206805474846   15.65288004705356    0.90521971594582
N         5.97886280140750   15.38012018718540    3.09410375121741
N         7.48582840823284   12.86725863742784    0.46037638544747
C         8.28234098556746   16.58687304162707    1.65468228577596
C         9.43450736477487   17.24689426302569    1.17151720816610
H         9.78826740171372   16.99344108864308    0.18216655415196
C        10.12409146161908   18.15055704413932    1.93747425739167
H        11.01601783507172   18.61406087175381    1.54168488423818
C         9.68842556135402   18.47133515841147    3.22401619833970
H        10.23378829143489   19.18576688534197    3.82057856352309
C         8.55787996038556   17.86860823081755    3.71580158888043
H         8.20368112710122   18.11075649743266    4.70804601021321
C         7.84175069063455   16.92058864865017    2.96937078767658
C         7.62896031994437   15.71939292967250   -0.45731330034129
C         7.48170861723302   16.95662353312865   -1.11519712811852
H         7.38445762221901   17.84737907672116   -0.51036724081296
C         7.43183684667280   17.04255639908373   -2.48542721342319
H         7.29860912982918   18.00687573651512   -2.95385500964468
C         7.54890119432501   15.90005067267371   -3.27232860380244
H         7.51618336887671   15.97344816801473   -4.34800601898928
C         7.70318310458131   14.67574164384360   -2.66197318298684
H         7.79782109083259   13.77514905134642   -3.24950976493780
C         7.72839765109833   14.56239004705758   -1.27116359046223
C         7.93117245011129   13.25837643358989   -0.67717780047844
C         8.81272444010983   11.21434234370234   -0.51685749925582
H         9.87839736081856   11.09624749863820   -0.30226587140525
H         8.45667975644268   10.33442517176237   -1.05648459747367
C         7.97335454991749   11.52750072183785    0.74297178001319
H         7.11035190423460   10.85452585746675    0.82359952538493
C         8.73023438468078   11.47993949261945    2.09065220752878
H         7.96064987266341   11.55979193172115    2.86882073451127
C         9.44309656197322   10.14149901673184    2.26362892647685
H         8.75804794396457    9.31865289070672    2.07490057829532
H         9.81007904799927   10.05156732454606    3.28284777450270
H        10.29273108479877   10.04654001760255    1.59074325616867
C         9.69212546135289   12.65977493354996    2.26000748098233
H        10.30940329623115   12.50450393462099    3.14188217779465
H         9.12737860782861   13.59718442122533    2.40315592535426
H        10.34939535034130   12.77036167894652    1.39779063490276
C         6.61609707021153   16.41672753305757    3.50964757763011
H         6.16684859848698   17.01424743787980    4.30687281625576
C         4.67292498795459   15.12141540633238    3.56806318770029
C         3.61042456653370   15.34398340988571    2.67735514569732
C         2.32275986180294   15.07288209514978    3.11229257448835
H         1.48950497463280   15.21774003745977    2.44284240059521
C         2.08939369270869   14.61735863832237    4.39709277073953
H         1.07919026608493   14.41481084533621    4.72069062089595
C         3.14498927594492   14.41011313733943    5.26218329200799
H         2.95054415878904   14.04588156904258    6.25895452517522
C         4.45397588581449   14.64910295378950    4.86567067092439
C         3.87182836954662   15.85073475632015    1.27067384207369
H         4.87781436530367   16.29636637423170    1.23066979970092
C         3.83566176870562   14.68134136510760    0.27498451717362
H         4.58983450305421   13.92066182188174    0.54380859927978
H         4.04420728052181   15.04113214521705   -0.73214615544233
H         2.85631969229851   14.20741669345336    0.28535250868416
C         2.87948447531136   16.93780074381952    0.85403141049328
H         1.88313482180340   16.52933033422186    0.70806000328474
H         3.19887951690481   17.38583456563689   -0.08465097444952
H         2.82609613581583   17.71900803938535    1.60938485410678
C         5.60341219495731   14.35274306496343    5.80188631684770
H         6.54608737584800   14.47217646367375    5.25360721376035
C         5.60031200423492   15.32256698731103    6.98610387644418
H         5.67030477187885   16.35482899036821    6.64729306777984
H         6.44476811435312   15.11729648558274    7.64047187692940
H         4.68460645799313   15.21722745084210    7.56312520884280
C         5.54613628331523   12.90238629160063    6.28559684587719
H         4.67458342549032   12.72740891334126    6.91058291921732
H         6.43671361801378   12.66995640922022    6.86585197543556
H         5.50101835417536   12.23612349833828    5.42788325208579

