61
CSD_code = COCJUA | q = 1 | S = 0 | Stoichiometry = C20H28AgN6O4S2(1+) | MND = 4
Ag       24.54661451340795    1.33061163620658    6.63220648991160
S        22.79917103026112   -2.95399289867503    5.56569728536237
O        22.49979909125330    1.49432513258718    7.11347961796114
O        21.01411052859788   -2.84833795299758    7.26629735617148
C        22.83320169940535   -1.26503416838560    5.96121821377491
C        24.43224951345033   -1.34425842302012    4.46287268503044
H        25.17650876080623   -0.88590845370159    3.83648611326079
C        24.07609538259800   -2.65761348040051    4.46065262984191
H        24.49103244626602   -3.44515062994168    3.86541107099656
C        21.92383372017704   -0.77728768428256    6.94077714545198
C        20.71048333630991    0.53409223352087    8.42629016212052
C        20.27669160073734   -0.95873040110107    8.57488580072633
C        21.21564610662579    1.20182614597219    9.70319266857511
H        21.58116709850437    2.19540169194492    9.45490685814261
H        22.02964697759679    0.65041193906065   10.16325406547875
H        20.40611155897620    1.30158466372573   10.41937813129396
C        19.65000960807469    1.43822088224648    7.78713346304426
H        20.08215208183255    2.42407567429360    7.63298638371681
H        18.78660683879767    1.53498685490594    8.43708451039765
H        19.33174962565502    1.05941105834420    6.81981706985512
C        18.80080379236520   -1.24937855426388    8.30715693336290
H        18.65383261437950   -2.32698005997289    8.32106163768913
H        18.48089682827498   -0.88262405672972    7.33723413409394
H        18.18150155791664   -0.80475131983901    9.07965186561993
C        20.66986184200764   -1.61816974420611    9.90016770264836
H        20.43229072522924   -2.67792815623458    9.84096537887102
H        20.11192005196819   -1.18353934692796   10.72304452451035
H        21.73401867594280   -1.52650520339240   10.09902066525224
N        21.82100207847819    0.45271431786257    7.45679755836135
N        21.07191621580491   -1.61912930339102    7.52715503009313
N        25.35793351590478   -0.55800460312288    7.94995855250676
S        26.29403239005240   -2.95385218241616    7.69971748512431
O        26.59366241598402    1.49431462793327    6.15158951570889
O        28.07971004906954   -2.84819966291931    5.99999562509506
C        26.26000310785705   -1.26492777998810    7.30406334546206
C        24.66077871834774   -1.34403767768774    8.80219630600071
H        23.91636756532528   -0.88566516828839    9.42834036292550
C        25.01670022418595   -2.65746708027349    8.80429819478137
H        24.60150644191010   -3.44500118930135    9.39936056447080
C        27.16972546510759   -0.77719224458992    6.32486315159716
C        28.38373755379517    0.53409406081702    4.83984357611680
C        28.81785980235673   -0.95867648866824    4.69174946590902
C        27.87935209882436    1.20149039217347    3.56245746248752
H        27.51328379178264    2.19494324210563    3.81039839084839
H        27.06587632015368    0.64971741689012    3.10192415076922
H        28.68933968814980    1.30148233052054    2.84680194420070
C        29.44379983338712    1.43844040132443    5.47934895176449
H        29.01135177891103    2.42421247172938    5.63310907775871
H        30.30758734106013    1.53528593497995    4.82989746502979
H        29.76151771398069    1.05983591087154    6.44693090104252
C        30.29361197472607   -1.24906566867253    4.96055493688889
H        30.44075458568312   -2.32664543697233    4.94683435944138
H        30.61271489486555   -0.88221819324148    5.93071519143325
H        30.91345233572563   -0.80439423157214    4.18850102147936
C        28.42569122746998   -1.61832702385288    3.36626845409000
H        28.66356020231213   -2.67800858715048    3.42566910927214
H        28.98391789161510   -1.18360570613934    2.54362602344460
H        27.36159739940540   -1.52703540346236    3.16685989543312
N        27.27270734084266    0.45273755314556    5.80875921434683
N        28.02202528101946   -1.61902246204934    5.73902984405325
N        23.73511514860296   -0.55814994544500    5.31505430900752

