87
CSD_code = COCLIS | q = 0 | S = 0 | Stoichiometry = C31H46MoN6O3 | MND = 6
Mo        5.22846897563765    4.13686473500476   11.08664487869103
C         5.80012623267646    4.06553328209400    9.24607947936961
O         6.07845162557017    4.03955816781479    8.12937676542442
C         3.84534393491963    5.34794908649670   10.50278330988711
O         2.99119856152234    6.01599775279698   10.11730375449947
C         4.00465297938949    2.71044560028724   10.65302300139914
O         3.27063474038840    1.88548328840853   10.32821312033989
N         4.69701162960461    4.28471663174576   13.13879924726763
N         5.66894711253230    4.40650143917204   14.05496557496201
C         5.15281305242257    4.54799961892617   15.31469036878410
C         6.00139112038584    4.69906468809160   16.52523402527682
H         6.65356400070853    5.57075919579585   16.44918095403721
H         6.62087092437396    3.81535602721633   16.68808316370927
H         5.36352554061310    4.82725170560407   17.39474853645727
C         3.78315116070614    4.51563863118266   15.17104684507309
C         2.75523199532673    4.59722639357298   16.24970161522799
H         3.11841459176631    5.24272558720551   17.05104785562110
H         1.84396630359528    5.04151138929843   15.84611076831475
C         2.43685330909027    3.20419464151949   16.80649549489963
H         3.33785806917397    2.78333207115894   17.25979127725232
H         2.15397912393872    2.55460299914155   15.97498864103670
C         1.30723572353962    3.21406010224784   17.83533149988353
H         0.42524739155024    3.68684536428723   17.39767157658592
H         1.04459740809431    2.17999334351839   18.07023349283042
C         1.67813437094017    3.93253216912601   19.12767428275899
H         2.58024649899168    3.50156597407810   19.55781297575317
H         0.87505825020856    3.83782440535123   19.85473715765073
H         1.84939178633081    4.99175454167342   18.95295983646689
C         3.54927629497943    4.34289552695399   13.78518666749592
C         2.24519969655549    4.24900984962575   13.08544870570354
H         1.94532935879762    5.22830006069656   12.71235440628597
H         1.47400058673544    3.87973401028778   13.75614881896943
H         2.33828217629454    3.58361987104740   12.22953023278345
N         6.72444795601848    2.83314243253202   11.84542187457999
N         7.35844801767431    3.16121784483766   12.98037422204752
C         8.24613035938091    2.18994618140522   13.35450751827630
C         9.07851897631739    2.28480114163010   14.58212727279478
H         9.63370940355016    1.36026640050542   14.71006504896112
H         8.46176706716386    2.43701148831493   15.46933546395320
H         9.79554167672509    3.10503732227613   14.51441409377247
C         8.16020543327047    1.20329259069862   12.39573642568004
C         8.95300891758103   -0.06130658442899   12.34267434173545
H         8.99478835968145   -0.50394970760290   13.34163530621470
H         8.45294225403685   -0.77341652922942   11.68539685052064
C        10.38372402648612    0.17616241264781   11.84150343446147
H        10.87480062563526    0.91012985867097   12.48516275127566
H        10.94343251278658   -0.75912802104134   11.91665291717106
C        10.42377275636904    0.67146986586377   10.39836854741520
H         9.84032371686648    1.59064433140434   10.31338985710487
H         9.96360828067333   -0.07521975280561    9.74763533795034
C        11.85069355450998    0.93142598587679    9.93216721325081
H        12.32515784782529    1.68845945156431   10.55355306909281
H        11.85747351618704    1.28029688354084    8.90253486904521
H        12.44413803958659    0.02118277310373    9.99023758230833
C         7.18989620694079    1.65748506935382   11.46922633634835
C         6.69181346719083    0.97923753617618   10.24825921813080
H         5.73753361179859    0.49359488257799   10.45137611973223
H         7.40016496770630    0.23162608451101    9.90370714298854
H         6.52527017148747    1.71525980224411    9.46404311464284
N         6.63634178215272    5.63350474898698   11.62311208578715
N         7.31331435033853    5.50902847640516   12.77378090078511
C         8.21581249516942    6.52572096155706   12.93591272404253
C         9.10280289550009    6.62787847466333   14.12394767536328
H         9.71565311852270    7.52011763118882   14.03907587867662
H         9.76924681410469    5.76679113993962   14.19569505992585
H         8.52520424613397    6.69835377590504   15.04719306970695
C         8.08751177789170    7.32978992503114   11.82422952656365
C         8.85457757136381    8.56467337883591   11.48761422216924
H         9.32981029101744    8.96245125474357   12.38689113079339
H         8.16210662077058    9.32287693998596   11.11423627997799
C         9.92472502188700    8.30096784664765   10.42103943412819
H         9.44802914159497    7.88984896204548    9.52973286469640
H        10.38928047542590    9.25042424210185   10.14565374197776
C        11.00307371810356    7.33471572439822   10.90345504603538
H        10.53858745494380    6.38426166612536   11.17569272692338
H        11.48137699838552    7.74166148013221   11.79834368484827
C        12.05876054385603    7.09152954885842    9.83242454584558
H        11.60477997309227    6.66188661263322    8.94240810840186
H        12.82204061709607    6.40580603554555   10.19333288070584
H        12.54145367423505    8.02564658298570    9.55303629574085
C         7.08376323273651    6.72243853489581   11.02958625936708
C         6.55687872019199    7.17484481923656    9.71995502186150
H         7.02990618196183    6.62135218336417    8.90909433062209
H         6.74582195744041    8.23553597232701    9.57587454341320
H         5.48728443508774    6.97966080613227    9.66925001257058
C         7.04467541248194    4.39688019147496   13.64222476734482
H         7.67811422769112    4.48713418778081   14.53200292157057

