73
CSD_code = COCLOW | q = 0 | S = 0 | Stoichiometry = C26H32Cl4N6NiO2S2 | MND = 6
Ni        3.72854690823522    2.39688610922739   10.87359221660860
Cl        4.34997865670439    1.03872450163029   15.30472163724336
Cl        7.09294361246329    5.48695987193778   16.51026216666082
O         4.04820611150749    2.28368192241162   12.70339248363616
N         4.42751516410411    4.28781989041361   10.86612944836184
N         5.95488611292597    3.62362903189080    8.41866437385092
H         5.08024154883702    3.27705186490426    8.02420265766002
H         6.09675729277392    2.59784083340154    9.60154210959868
C         5.22469933163096    4.30797247707722   13.16673321540632
C         4.71755536600654    3.01873708895310   13.49714502404870
C         4.97503152875635    2.57985425061986   14.83068482742167
C         5.69192797050731    3.31378593310393   15.73657377380050
H         5.87369977663626    2.93296677675102   16.72943552701772
C         6.18728989926896    4.56567755973148   15.36172702807534
C         5.94953141888162    5.05930266648418   14.10521235820761
H         6.32841174826040    6.03071865353161   13.82649315441065
C         4.99072806582162    4.85495565267744   11.87308344028745
H         5.34686078803445    5.88302422256691   11.75357930548804
C         4.39374349331343    5.08220702932774    9.65118601462834
H         4.21686301773707    6.13712012144376    9.89432239389933
H         3.58207561856253    4.72557593458331    9.01719021890981
C         5.72094813302319    4.98146354935452    8.88422129752153
H         5.68273483808270    5.68861096877408    8.04063602367129
H         6.54432460035562    5.27855680326485    9.54323948284084
C         7.03118393311556    3.46010088185369    7.44237395476927
H         6.96254568919127    4.24341624266699    6.66744657570989
C         8.39143248280753    3.56826514743164    8.13000466379824
H         8.53160619172437    4.55132951991061    8.57142974513098
H         9.18511672130694    3.40704592519292    7.40586668838361
H         8.47818531399848    2.81863081016983    8.91284404370228
C         6.87024251437914    2.09487141577201    6.78044424400580
H         6.90912812178424    1.30840038306869    7.53060079435298
H         7.66548575189293    1.92871404730011    6.05927585369655
H         5.91652641584559    2.03199930842749    6.26073460745396
N         6.06070764569106    1.93921981786228   10.45331958448501
S         7.72960747944285    1.20947237799997   12.52018144058447
C         6.83084877219394    1.65500631342322   11.32392281120185
Cl        3.10655527921169    3.75520712813315    6.44255778646435
Cl        0.35973534728326   -0.69113182594394    5.23864046359212
O         3.40900675076017    2.50999217283744    9.04371046592205
N         3.02942979687022    0.50603983902439   10.88112683637116
N         1.50196528382295    1.17025292731332   13.32852649683413
H         2.37651224129856    1.51678011830580   13.72322085256796
H         1.36026260245825    2.19591379022019   12.14532236474402
C         2.23109722447061    0.48643300204300    8.58091350073695
C         2.73879635030707    1.77538570192583    8.25028051438949
C         2.48078118917098    2.21448028717487    6.91689399082185
C         1.76279400492893    1.48105282542127    6.01146662893152
H         1.58058855503683    1.86204044995977    5.01874700259822
C         1.26683312475381    0.22947583232460    6.38658667038110
C         1.50515375047532   -0.26439286171661    7.64289598771027
H         1.12583745935210   -1.23558484146211    7.92179813621216
C         2.46558432252353   -0.06080289695684    9.87436576302267
H         2.10901229796544   -1.08869747461137    9.99398222599923
C         3.06317154932928   -0.28840534593393   12.09605431976210
H         3.23987909637903   -1.34332371967230   11.85282347032575
H         3.87492478134691    0.06808631152573   12.73000310900472
C         1.73598592814545   -0.18759420298490   12.86306783032264
H         1.77422699181399   -0.89469691922785   13.70669144368581
H         0.91262215391144   -0.48475756386989   12.20406774499144
C         0.42532195916721    1.33392557513055   14.30437653125300
H         0.49343579720243    0.55057955612890   15.07933043291303
C        -0.93467549678939    1.22606700681745   13.61617409136170
H        -1.07475154685045    0.24314812644975   13.17439663091832
H        -1.72862490343336    1.38711879878615   14.34005982365388
H        -1.02109345022202    1.97594451020422   12.83353007158887
C         0.58621047671683    2.69911918757901   14.96640931350592
H         0.54771430954623    3.48561417646364   14.21625308848548
H        -0.20926083867746    2.86539526943641   15.68729634582477
H         1.53975340260988    2.76184603607154   15.48645434722933
N         1.39674171057563    2.85482155784203   11.29386121047292
S        -0.27185620158754    3.58696352647676    9.22762208412708
C         0.62661066433035    3.13980803364980   10.42347723675578

