63
CSD_code = COCQUH | q = 0 | S = 0 | Stoichiometry = C29H29AuNOPS | MND = 2
Au        2.18223489225862    1.31553668820974    3.39295377420442
S         3.81587209100188    2.83960330028755    2.71115081011162
P         0.76655853653808   -0.35551573964524    3.99000859519713
O         3.72429184983358    4.91861207451193    1.28370075635695
N         1.68150391704351    4.44278927782534    2.10980782999236
C         2.91639963644451    4.16017945447513    2.03111444190252
C         0.72786431099045    3.92891780340425    2.94112052143522
C         0.88558503308671    3.90540099885037    4.33590511466743
H         1.82447734995578    4.23250026123753    4.75946843031137
C        -0.16339927357133    3.53079559707906    5.15189869493119
H        -0.03406625772696    3.53683714768006    6.22512234839288
C        -1.37846123070092    3.15094049306911    4.60654863182142
H        -2.19561530017806    2.86262471118191    5.25067060192676
C        -1.54083902719233    3.15858448634435    3.23041080745266
H        -2.48968855627871    2.86670491689226    2.80039662776225
C        -0.50725453293648    3.54937382464846    2.40310982138664
H        -0.63504734886697    3.58168644958859    1.33032278082820
C         3.14602906644256    6.06936677800230    0.70338601066332
H         3.94940364372122    6.57042317978575    0.16756125192551
H         2.73234090613058    6.72433813602636    1.47417286902875
H         2.34283316866696    5.79006278378891    0.01698604995766
C         1.62220045356509   -1.85214648768997    4.55265217162093
C         1.11998649927429   -2.68615032411332    5.54495844496815
H         0.18717461449514   -2.44690307684966    6.03625548603961
C         1.83130260256675   -3.81975569621490    5.89757166539591
H         1.44966874290362   -4.47275462651487    6.66887905904007
C         3.02618940095694   -4.12023495389550    5.26860421112970
H         3.57374335631865   -5.00711558155456    5.55340619767452
C         3.54174635159127   -3.29215467774062    4.27486421573799
C         2.82819157343764   -2.15575402037245    3.92830951887957
H         3.20787406245121   -1.48153613977474    3.16959655717233
C        -0.29194191852493   -0.94537777162627    2.64231013026588
C        -0.65884571955668   -2.27831910950556    2.48531726746068
H        -0.30335610603766   -3.02666335584819    3.17952218705872
C        -1.47818027657404   -2.62937080186976    1.42842147385492
H        -1.76727612186913   -3.66162456682674    1.29484436680530
C        -1.93047114089140   -1.66760844905374    0.53914192082441
H        -2.57018508084069   -1.95937891597577   -0.28137588656717
C        -1.56705738669311   -0.33389832031537    0.68323519250131
C        -0.73631223515409    0.01338863452473    1.74013812406139
H        -0.42830106491277    1.04294814353352    1.87498217734992
C        -0.38405144206998    0.00029971786471    5.34081821562670
C         0.18228866795167    0.46209214349738    6.52715019770877
H         1.25747955866991    0.56896434823123    6.59508869447792
C        -0.63527031224807    0.77886460361656    7.59274940985831
H        -0.20577495201254    1.13467007982688    8.51760258154037
C        -2.01062694836482    0.65129182828725    7.47413039208613
H        -2.64446156516949    0.91038010631290    8.31011303074844
C        -2.58777237534753    0.20554466402800    6.29198511581808
C        -1.76074627903468   -0.12019538558884    5.22343296868350
H        -2.19478188087393   -0.46303439136964    4.29397608529020
C         4.84291019244677   -3.62252582559497    3.61304380641534
H         5.65241454084332   -3.59128185270701    4.34142404919544
H         5.06558543263805   -2.91555456531221    2.81860375091320
H         4.81241053947060   -4.62692237725983    3.19330836532560
C        -2.04114485371721    0.71747747232079   -0.27091391616637
H        -2.58905487365077    1.49218623011178    0.26372608471891
H        -2.68858381075163    0.29285750448653   -1.03380682936893
H        -1.19075140425711    1.19250210621138   -0.75815281971687
C        -4.07338267842319    0.06542586744333    6.15898716150652
H        -4.58873171713259    0.60971535677798    6.94625279789048
H        -4.35774058367408   -0.98493344218052    6.22665530286623
H        -4.40778673647921    0.43862328542714    5.19307430305026

