65
CSD_code = COCQOB | q = 0 | S = 0 | Stoichiometry = C29H28AuN2O3PS | MND = 2
Au       -0.75325791697503    0.77298634537808    3.46683950794709
S        -1.85443284008620   -0.83649921700450    2.17987715283451
P         0.31173787627034    2.37077285806356    4.66163181101610
O        -5.94607820847761   -4.75795652579889   -2.69317177478531
O        -4.13554435675979   -5.81425499994628   -2.21468719726284
O        -1.42134996930866    1.37120048230557    0.95873858221483
N        -2.63321066444295   -0.07558946477107   -0.29290411139109
N        -4.81410016781542   -4.80172602515018   -2.24177425501055
C        -2.00637047731333    0.16374084275622    0.78430335970732
C        -3.16328302004839   -1.26540012564165   -0.69438998333131
C        -4.44794335825969   -1.26282258806086   -1.25913687167394
H        -5.00304659157023   -0.33791141480568   -1.27869307044058
C        -4.99151701883904   -2.41955607884658   -1.75902485304268
H        -5.98291278519468   -2.43643159875928   -2.18561430991457
C        -4.25291525601398   -3.60274295157285   -1.72071095691474
C        -2.96816740554127   -3.61727313765507   -1.17801450593074
H        -2.41853045706975   -4.54622967611660   -1.16068059480455
C        -2.42846103719306   -2.46084738200838   -0.67191592243114
H        -1.43730023253716   -2.45775753206636   -0.24594461431134
C        -1.48102602558043    2.27240903622642   -0.13500608273911
H        -0.94059864880893    3.16278137696673    0.18109733145277
H        -2.51954485854438    2.51186039431590   -0.37114024798517
H        -1.01278117457088    1.83167520082911   -1.01695652805531
C         0.49992888312252    3.92595386606688    3.75090133982203
C         1.64334478866963    4.71263517494648    3.82450858976056
H         2.47133473959574    4.39745551898147    4.44534914577512
C         1.72854700152079    5.89601619039398    3.10458400565003
C         0.65051174338662    6.27662549254585    2.31097691207310
H         0.70986467904981    7.19538682662413    1.74567590833577
C        -0.48855596527535    5.49379828681279    2.23136198345573
H        -1.31303465115456    5.80352689125862    1.60606142694372
C        -0.56766399208807    4.31327422054825    2.94643877176876
H        -1.44446187802435    3.68164254758299    2.88751500190775
C         1.99516418255099    1.94237739133643    5.17483511711971
C         2.54161074178978    2.33807034737943    6.39013040823974
H         1.95531397548753    2.92180271377060    7.08586584402400
C         3.84043151212937    1.97070376487258    6.69558132341091
H         4.27421323432533    2.27144516787411    7.63792309842756
C         4.58419353184121    1.21989729720489    5.80266801342337
H         5.59595386668781    0.93644868543639    6.05391964540799
C         4.04747735083021    0.81423514536205    4.58342259321733
C         2.74502909454488    1.18105687621279    4.28327021274927
H         2.29101989250567    0.87238118027162    3.34884420683757
C        -0.50618233873179    2.85046560243913    6.20465634994287
C        -0.78923557443515    4.16666098827434    6.54415972403458
H        -0.50323961899998    4.96887337076466    5.87706313310896
C        -1.43825218115536    4.45939657425655    7.73733457364213
C        -1.79748999148787    3.41278720610977    8.57859886691379
H        -2.30538148196521    3.63010583413555    9.50691818310309
C        -1.52295308207782    2.09736872987893    8.24000501721695
H        -1.81874052048510    1.29726216664453    8.90163233043482
C        -0.88325315571360    1.80959921683795    7.05067205917834
H        -0.67295796111762    0.78784616419674    6.76135319972052
C         2.94908889528317    6.75953831516717    3.18725820736877
H         2.72951993274590    7.66327003383362    3.75552215927702
H         3.27108767868047    7.06337470335579    2.19334491858230
H         3.76532281288332    6.23550624549536    3.67757468302131
C         4.85511400692063   -0.01775841265103    3.63743149016902
H         4.37855507529061   -0.07356425476642    2.66243814047999
H         4.95660794785239   -1.03023772416671    4.02769685860995
H         5.85536405747640    0.39488910884155    3.52044260448700
C        -1.72145634039728    5.88094529867782    8.11393941860540
H        -2.57013681906458    5.94160180894261    8.79005249983398
H        -1.92685721518269    6.48190027690041    7.23131351155811
H        -0.85591226309471    6.31090734266939    8.61883665722999

