53
CSD_code = COCSAQ | q = 0 | S = 0 | Stoichiometry = C18H24N3O6PRu | MND = 9
Ru       -0.65259513656214    6.58256050945922    3.12284055424212
P        -1.17146142553479    8.49214944455971    4.29910995810468
O        -0.82644246064167    5.70213301193750    4.98757798660818
O         1.22160660975583    6.93500286938071    3.92422028437232
O         0.21155478033976    5.39746311607775    6.91852046504421
O         2.42462077505254    6.77994249061137    5.77528603221739
O        -5.79092338371881    4.24866503919736    4.21263592187510
O        -5.47807493334159    5.94213580419458    5.63287063408507
H        -6.25463187866041    5.57274767658026    6.08260052522359
N        -2.07899651578005    9.72522285087470    6.57252978696023
N        -0.30800408980215   10.86825693508566    5.37627129400676
N        -2.56665514049611   10.85897647267709    4.47911116571255
C         0.18929098834256    5.81200851880522    5.78000799474332
C         1.41052552052907    6.56426390869933    5.14652534238310
C        -1.85154066172599    8.40257972801774    6.03314587089578
H        -2.79267634748961    7.84069851728185    6.02955443370490
H        -1.13927052256730    7.86732007580318    6.67218844388171
C         0.18665468168630    9.71940534037284    4.64906126491745
H         0.97368907992244    9.22906245425742    5.23349843000670
H         0.62316626842156   10.04494551648264    3.69709568726638
C        -2.40744941466871    9.71015946306478    3.61487251133883
H        -2.06773731120988   10.04991668524963    2.62933581687429
H        -3.38134732172293    9.22196952963058    3.49630667245745
C        -0.84733504894142   10.49095625690214    6.67337367865579
H        -1.06028558001816   11.40688015658891    7.23298892290502
H        -0.10252969971719    9.90361813208016    7.21471011187137
C        -1.31921225324109   11.59477295014212    4.63197177763293
H        -1.54016804346808   12.52123227372859    5.17051835573135
H        -0.92856924049297   11.84329658391219    3.64158968555444
C        -3.04994495382040   10.47500819916195    5.79888803932817
H        -3.95872944783627    9.87780589202124    5.68695918720245
H        -3.29023798310551   11.39101137534286    6.34694731498144
C         0.27792794483869    6.25256860359162    1.09471510611141
C         0.04368948077617    4.97935291027918    1.69005631388451
H         0.86260049689613    4.27318123971503    1.76730349379039
C        -1.23424690646615    4.62318881092773    2.13110520348648
H        -1.40292249640917    3.64073942828285    2.55968728625023
C        -2.33217918391435    5.51415334422410    1.99381082016264
C        -2.10764648492361    6.75655800201214    1.36370830527486
H        -2.94892930663510    7.41399592673834    1.16427822433136
C        -0.81584575276409    7.12037609949193    0.90327409694174
H        -0.68084932006902    8.04678630711472    0.35465484770077
C         1.66082588852536    6.62721690863130    0.66443380717522
H         2.12920788385323    5.81224950084304    0.11477890384508
H         2.26452038793045    6.82427581249591    1.55361265893868
H         1.65556349025900    7.52183202028062    0.04615253767884
C        -3.69654590865426    5.14099050278834    2.50410923497113
H        -4.47187274738375    5.52894223959394    1.83896962082391
H        -3.80520665897388    4.05619748050139    2.55283980382573
C        -3.89608939594755    5.71372914214935    3.91211394269921
H        -3.93206660227351    6.80555260072958    3.89029144603404
H        -3.05085955040944    5.42799250535366    4.55199051595393
C        -5.15006516773973    5.19845283608166    4.56899967943018

