52
CSD_code = COCTOD | q = 0 | S = 0 | Stoichiometry = C28H21MnO2 | MND = 10
Mn        2.61471166940230    1.20492859622932    9.92793138225429
O         2.13263144690338    4.13067326665909    9.54826425200509
O         2.99987785982050    2.67976256591167   12.42002309359660
C         2.61250217099201    3.05938812323284    9.34172450295133
C         3.34468833193422    2.43992136065322    8.25948684499314
C         4.41845721979794    1.55252380378030    8.55107289836021
C         4.93495410160573    1.56386109106022    9.88452622840953
C         2.85397079973277    2.07747870274898   11.44779230862147
C         1.25070802960610    0.00504456977276    8.65776562838202
C         2.24805018352785   -0.85501239220486    9.16589192521181
C         2.16091409809232   -0.85002435188585   10.57129537647242
C         1.07749184437038    0.00703598285624   10.93438869140583
C         0.52057235766620    0.53759105217994    9.74295546020037
C         2.88448000282126    2.77177310726472    6.90270794016934
C         1.52839616266862    2.93702239260312    6.62008577485354
C         1.11296163227438    3.29013684548653    5.35052915672565
C         2.04189549976458    3.49438222067727    4.34399740253951
C         3.39235890162580    3.36254733404666    4.62285635472779
C         3.81521764319462    3.00972848319266    5.88946385404867
C         5.04149915350803    0.74351947058404    7.48373215699135
C         4.29301116080617    0.06007874977875    6.52717611199432
C         4.91797743217291   -0.65481870120067    5.52301487568489
C         6.30006028122276   -0.69023479024237    5.44849634666109
C         7.05464821264430    0.00048464676416    6.38272562144565
C         6.43404948071729    0.71083945808979    7.39173190034843
C         5.86360574435023    0.57510463524924   10.42118635258130
C         5.87496821408598   -0.76407606007181   10.01576240575360
C         6.77219727549565   -1.66023813950272   10.55871960335035
C         7.67686163418534   -1.24949292666535   11.52535241039446
C         7.66737447969567    0.06827930026510   11.95274801315595
C         6.76940839577677    0.96745469226929   11.41315892551223
H         5.05102794083092    2.55355633836591   10.34225035689619
H         0.99376567497442    0.12545491576476    7.61365704005741
H         2.88279899292924   -1.49802507824085    8.57333703334868
H         2.69617678103796   -1.50527262897969   11.24513142879823
H         0.65243050155179    0.09900220480238   11.92637790666547
H        -0.38940831916261    1.11689879712901    9.67661267126913
H         0.79805412470755    2.78585792551714    7.40312664867086
H         0.05868947919531    3.40751681644725    5.14652539961214
H         1.71608891773679    3.76596388361933    3.35114948699707
H         4.12475032213381    3.54085673124061    3.84927970589052
H         4.87082948295080    2.93306820721094    6.10287229974334
H         3.21445208669280    0.08395218612911    6.56700374719832
H         4.32225078182129   -1.18432587650638    4.79384894825632
H         6.78650099703934   -1.24873520407756    4.66286451537980
H         8.13284577255209   -0.01271734208800    6.32429236633557
H         7.02585210423172    1.25802836802247    8.11043025151536
H         5.16914522482170   -1.10620542804427    9.27528332140207
H         6.76511458560238   -2.68951308917516   10.23003864660092
H         8.37752664092939   -1.95387992562935   11.94802747628755
H         8.36174702133495    0.39447011911573   12.71299390647384
H         6.76395946562433    1.99248498979425   11.75523304279935

