41
CSD_code = COCTMP | q = 0 | S = 0 | Stoichiometry = C20H16MoO4 | MND = 8
Mo       -0.75029256394808   -1.13407932491566   -0.05799629556871
C        -1.82328957246795    0.07630148201070   -1.16159083923195
O        -2.47755753689737    0.77216792091210   -1.78053119890595
C        -1.00458633011512   -2.53283970987286   -1.37979331014207
O        -1.18575416431108   -3.36722247994458   -2.13781097175379
C        -2.39079519793464   -1.72492969382488    0.79125289137373
O        -3.36055431489261   -2.09905584616449    1.26447409268916
C         0.17605846122440   -2.43741439884607    1.06992320544748
O         0.65357102727138   -3.21560407645699    1.75021795553925
C        -0.05275359478922    2.01446214272923    0.17715120506802
C         0.58016827016245    1.56416360276523   -1.15748890020088
C         0.79876725412401    0.08790051981427   -1.33649762179765
C         1.53201719819506   -0.76694170400196   -0.54711786577046
C         2.30479837561301   -0.50220252225974    0.73079471655306
C         1.53836274919485    0.26683351517034    1.81847092421542
C         0.03772794030404    0.09561566038039    1.76766839710152
C        -0.71968163468974    0.95894201691162    1.00667683877428
C         1.85695891314016    2.37995776052042   -0.80532393517742
C         1.33646592214720    2.53461516238986    0.65090868640369
C         1.87905733824179    1.76875187033313    1.85123563141042
C         3.35610337964712    1.91268190173732    2.04945727701445
C         4.19206324199791    1.07647242362572    1.46106150045995
C         3.72371988612521    0.07338293617164    0.44394251846199
C         3.85942129941196    0.78566309882400   -0.87528338375733
C         3.12442622295618    1.79218791432306   -1.32104490426171
H        -0.74962596267840    2.84007449527013    0.01020559483859
H         0.05628572860529    1.94290162778367   -2.03929777600164
H         0.70704512274222   -0.21869756106395   -2.38047990788917
H         1.92385021355699   -1.64433818546124   -1.06634008404930
H         2.49584236060621   -1.49328645885796    1.15993661648668
H         1.88673481910955   -0.13288108325626    2.77949211571755
H        -0.41184830759643   -0.30711170723606    2.67526556105601
H        -1.73099211259717    1.19141564469979    1.34063863358798
H         1.76488621235262    3.36946952484957   -1.26349228912374
H         1.31693474865352    3.59137397312366    0.93001063935928
H         1.36250254321893    2.18732290312025    2.72568205422040
H         3.70266271028715    2.68158407644718    2.72296221482499
H         5.25983731250179    1.14638203570990    1.60572585199501
H         4.42245110125738   -0.76850715457126    0.43158530674402
H         4.71691623356188    0.48765320740036   -1.46391054652652
H         3.40459470670793    2.21273448971086   -2.28024059918360

