39
CSD_code = COCVOF | q = 1 | S = 0 | Stoichiometry = C16H16CuN6(1+) | MND = 3
Cu       10.30000598075160    4.05215360517258    0.01695854197325
N        11.86650238647149    2.82358603279571   -0.34889140254781
N        11.71151394480335    5.50639351967742   -0.20144924527947
C        10.62430897930611    0.76088097197557   -0.19108423949360
C        11.89437013147862    1.50641041820431   -0.41290084212552
C        13.09180300804789    0.81785789034713   -0.68280008969744
C        14.25401344571183    1.51496194801438   -0.88486436412282
C        14.23595658562558    2.92139111928117   -0.81923142551570
C        15.38755719499373    3.73351947876055   -1.01474343806553
C        15.30952647411140    5.08580210983502   -0.93991133713876
C        14.07356314617182    5.73390581269439   -0.66399575549746
C        13.92902370123749    7.13176549483806   -0.57535208408630
C        12.69511700564210    7.66409894873257   -0.30822848881744
C        11.58624051555578    6.81672998388142   -0.12354051330173
C        10.23975054213881    7.38398887690635    0.16534762882464
C        12.91489681832915    4.95841120273636   -0.46529574035763
C        12.99720504457564    3.53223384563557   -0.54392594652378
N         8.50186288683535    3.97771950355322    0.35773141394507
C         7.34632723032165    4.11272249030515    0.38327047223582
N         6.10864976717227    4.33110487076981    0.25662858917959
C         5.08457342625263    4.04615206586294    1.01360430051898
N         5.18433867557038    3.41286148599042    2.19704106218975
N         3.87438364707992    4.41704158337119    0.57890831250596
H        13.07709402442496   -0.25971480608428   -0.72764335257657
H        15.18143614856294    1.00328082160812   -1.09426783839543
H        16.32681816728525    3.24459695345595   -1.22401318949324
H        16.18517755285642    5.69929386497166   -1.08804373277035
H        14.79026240658514    7.76665550455828   -0.72024731821268
H        12.55572846445621    8.73124173073837   -0.23633659256276
H         6.08485588789734    3.12700332036881    2.54015852993110
H         4.37500309257783    3.21271764650040    2.75823554662238
H         3.04024910055902    4.23372417124780    1.10651973742314
H         3.80353567234837    4.88769103988708   -0.30634524954561
H        10.38238950613557    0.16125968124701   -1.06702553721760
H        10.72789368845902    0.08501562347443    0.65627217169870
H         9.81243265416120    1.46186591295494    0.00114393373595
H        10.26772043332621    7.97097323705139    1.08195842240793
H         9.92974773893369    8.04445286228394   -0.64276115003339
H         9.51196492325066    6.58064917634226    0.27252021013598

