32
CSD_code = COCWUN | q = 0 | S = 0 | Stoichiometry = C13H12Cl2N2O2Pd | MND = 4
Pd        6.92368660272080   11.25946353370081   16.66467425651766
C         6.25444918767550   12.12386713956279   13.87173712329543
H         5.47768629433571   12.69636604604829   14.36784965031168
C         6.52774306498576   12.27415543486662   12.52449112698878
H         5.94982607295394   12.96366272774343   11.93104466930951
C         7.57359428772763   11.54904524088283   11.96766587878238
H         7.84602140428231   11.67863616191359   10.93181549131348
C         8.26792041253310   10.66035606617556   12.76670753744787
H         9.10386864338975   10.10965382731837   12.36933252902904
C         7.89484911965691   10.50349245376956   14.10096254990352
C         8.54852730352003    9.58652087022105   15.03518515632272
C         9.29513456594349    8.45785796493019   14.66324490734586
C         9.97818766252400    7.75303391262701   15.64839412937772
H        10.56675627129441    6.89132979064871   15.37479565739871
C         9.86761380105655    8.15497979558485   16.97146991945134
H        10.39364735908033    7.63580747545873   17.75561823735156
C         9.02858816050855    9.21057797280223   17.27744317008296
H         8.84702005487959    9.52767149365870   18.29955538874860
C         9.25594431504592    7.87521882025456   13.28745016075609
C        10.56770561914595    6.86513887014686   11.60865416100984
H        10.28886407666996    5.81354510451042   11.73583579659839
H         9.85044361204146    7.32833750047859   10.92242734364606
C        11.99264195845763    6.99795097310716   11.10632424755165
H        12.08740923775898    6.49383383872436   10.14926422800724
H        12.68314064995679    6.54822443208252   11.81439632899388
H        12.25550116410014    8.04524569276730   10.98287333644773
N         8.39010594031196    9.90606475806581   16.33781725927803
N         6.92855181181886   11.27502654660016   14.64568480433371
O        10.47061664437271    7.51252583679646   12.88333602672311
O         8.24403148632697    7.70348827984654   12.65739971104986
Cl        5.22652524920119   12.65876095881009   16.87363797299860
Cl        7.12919796572310   11.23536047989658   18.86861124362461

