61
CSD_code = COCXAT | q = 0 | S = 0 | Stoichiometry = C18H36N2PdS4 | MND = 4
Pd        2.37642732593616    1.87498491707284    3.92333239551499
S         4.34526433985388    0.87629219973366    4.67311623014563
S         3.73320472817692    1.86003435156330    2.00256407910136
N         5.41074835700355    3.11504893186520    3.63470918930400
C         4.58661837515998    2.07789267183968    3.47088168333645
C         5.70871027978635    3.99013011000757    2.51469501435841
C         6.69294066208087    3.34603464199688    1.52751922653277
C         8.02191417774020    3.03898066387978    2.21154606881249
C         6.89463812295202    4.27618798883231    0.33545033068036
C         5.80653424402822    3.55622833549087    4.95652900100419
C         4.95566447418903    4.74340747258774    5.44756144448407
C         3.46322958389160    4.42491119823499    5.36085170492923
C         5.34330394461942    5.06549809836826    6.88842630429600
S         1.02009046176782    1.88705629001962    5.84376629151615
S         0.40878165590724    2.87760144443218    3.17513069238844
N        -0.66565212877084    0.64328144960977    4.21218686901735
C         0.16383203537455    1.67599343341612    4.37635089654453
C        -1.06162420672285    0.20357730922772    2.88993174000283
C        -0.21468603150974   -0.98763220200583    2.40207227975831
C         1.27891898902531   -0.67356918061786    2.48667982880633
C        -0.60467908880310   -1.31463559616123    0.96303520984462
C        -0.96438932970504   -0.23455220398426    5.32987660370349
C        -1.93308739817207    0.41263011425737    6.33024128191428
C        -3.25272923380274    0.76994620757832    5.65269706328182
C        -2.16012908153438   -0.54040297873042    7.49951596648264
H         6.14474813440911    4.90730980362126    2.91120728235288
H         4.78012725037969    4.24040707212916    1.98813789800851
H         6.25591878494454    2.40800756115947    1.17085298229422
H         7.87856557905428    2.35005654362777    3.04104405883563
H         8.70963394120798    2.57991900289668    1.50590022628902
H         8.47829577911795    3.95306825191782    2.58775536561282
H         5.94866293047718    4.46715873290089   -0.16506791027793
H         7.31450652110298    5.22646799507358    0.65950360510693
H         7.57634025176022    3.82608889004143   -0.38125610326712
H         6.86279946576743    3.83557439482333    4.93125110539687
H         5.68540433434978    2.71553685277245    5.64431488142408
H         5.16805773182725    5.61845915301577    4.82282019680431
H         3.12896684811065    4.31419018502180    4.30802063607175
H         3.25192418595091    3.51359321539184    5.94111372713591
H         2.88231248561821    5.23646441552574    5.79547385260719
H         6.40911840920561    5.26719416612565    6.96714021053791
H         4.80189260789116    5.94028402623650    7.23900346519281
H         5.10200505102713    4.22870390060939    7.53964661599726
H        -0.93596589852517    1.04317120286511    2.20166359692294
H        -2.11925348144770   -0.07085450838967    2.91410690110400
H        -0.42910689401776   -1.85966070198685    3.03032756005556
H         1.61447074954028   -0.56077254167958    3.53891441964472
H         1.85651867712497   -1.48875475139133    2.05450050078334
H         1.49361991790680    0.23512085223440    1.90358688341654
H        -0.06582595239474   -2.19221782465312    0.61558011218121
H        -1.67100190272187   -1.51443551344267    0.88670797816128
H        -0.36239358878935   -0.48120021857956    0.30794323619073
H        -1.41480224029310   -1.14368744235129    4.93089941599640
H        -0.03459506092542   -0.49949699053023    5.84720171093935
H        -1.47290067951184    1.33046000118943    6.70935437961470
H        -3.92820812940128    1.23179609946253    6.36825206448465
H        -3.09000812788692    1.47271321627066    4.83850061795658
H        -3.73339938515886   -0.12281992791823    5.25618228398640
H        -2.82343585450136   -0.08668971515764    8.23100507282565
H        -2.61262446513432   -1.46777771488758    7.15360448514392
H        -1.21881323458027   -0.77540335198582    7.99003928887538

