75
CSD_code = CODDIJ | q = 0 | S = 0 | Stoichiometry = C32H32Cl2O6P2Pd | MND = 4
Pd        5.26769020516018    1.43169040535779    3.43795329263608
Cl        3.39391594133757    2.69749669524978    3.14900833205712
Cl        4.48847497701257   -0.53579219410002    2.57191795315547
P         5.84768808898572    3.36333068583788    4.39828331900536
P         6.91324312753669    0.02891458599500    3.90804786779024
O         7.15109118984240    3.50203282611866    5.38631628020023
O         8.11699421912278    0.80483557777935    4.74208462957763
O         9.58455605642667    5.32020982884961    5.19204606919204
O         9.25262970494351    4.36489761108938    3.19565441984817
O        10.16384399589984    0.93559191149739    2.73141413506487
O        11.01892472828082    2.23395505667403    4.35093326202803
C         4.71724827239666    4.10776566885968    5.60390570162987
C         3.80340640939419    5.08758345455256    5.23725500562089
H         3.77229549202817    5.43925838030231    4.21675815160329
C         2.92060674994066    5.58718147230046    6.17747625534860
H         2.21028431786285    6.34885605567378    5.89207677000249
C         2.93805257024881    5.10686147162446    7.47690533196988
H         2.24227827596120    5.49608633586727    8.20555769254438
C         3.84128756364999    4.12144639516485    7.83988872686808
H         3.85055466879916    3.74065412026529    8.85077037085642
C         4.72803102861810    3.61781263312603    6.90563114804135
H         5.43765017085299    2.84989071327488    7.18196032054081
C         6.12095655693846    4.59586070492604    3.09026803569379
C         6.39361064138939    5.92505981353611    3.38964994439367
H         6.43988784072187    6.23938023074343    4.42364673918397
C         6.60072890205993    6.82736027192088    2.36129933050530
H         6.80269732053497    7.86446136433386    2.58686992771753
C         6.53735432515151    6.40371957165975    1.04258696620373
H         6.68928321600187    7.11370115581365    0.24284891461887
C         6.28231805806987    5.07330504671290    0.74500118690697
H         6.23600879787614    4.74891287740653   -0.28433201218332
C         6.08030651346104    4.16530122075480    1.76870409522466
H         5.86243539495710    3.11055539552131    1.54692450424240
C         7.85466096195520   -1.04996199360834    2.79142561212711
C         7.52214992653527   -1.14242843901087    1.44738607650153
H         6.66454725032094   -0.59783492127868    1.07484808448323
C         8.27383831134896   -1.94694682038676    0.60868683940687
H         8.01327850224224   -2.02651984217216   -0.43613980396731
C         9.35723807038275   -2.65052188592093    1.10844342985948
H         9.93869439737827   -3.28373531071701    0.45408172372489
C         9.70496586950950   -2.53762351855987    2.44652708371319
H        10.55786389298501   -3.07829718707890    2.83181508931750
C         8.96128430076054   -1.73216504779067    3.28875102371009
H         9.24052024109468   -1.61170080586639    4.32677215775619
C         6.25767131380417   -0.99533852910145    5.25576640421238
C         5.29395720337710   -0.37392296384832    6.05165801397625
H         5.00656663226643    0.66674017116866    5.85102520986803
C         4.68485843794968   -1.07085201757964    7.07758447357056
H         3.93833517879617   -0.58736977976733    7.69023700602243
C         5.02039073620451   -2.39711853280393    7.30484389066291
H         4.53938807830263   -2.94559224843992    8.10098601081288
C         5.95392289517911   -3.02458879260298    6.49800895285479
H         6.19651895058094   -4.06435802373652    6.66111112697514
C         6.57041688321594   -2.33076347294426    5.46981834250783
H         7.27534861580545   -2.83450130919186    4.82542098483453
C         8.61971790155737    1.98011792736450    4.14493310212484
H         8.05578460672938    2.21101666404974    3.21909292857424
C         8.48922552601549    3.16741344765692    5.09712519568025
H         8.95944914979493    2.92988736204572    6.05997595301510
C         9.18880387559357    4.41118364393667    4.52152383687263
C         9.89916149257522    5.47730544192114    2.55571141882427
H         9.31040810857246    6.37914656628986    2.75200982271947
H        10.88862846652976    5.60357547765429    3.00701178625284
C         9.98919544348799    5.18809084473113    1.07101027145198
H        10.56890533693750    4.28624192208832    0.89746798007417
H        10.47107274509256    6.02188973520802    0.56915425779119
H         8.99331378191597    5.05054026004364    0.65905669326803
C        10.08636470382431    1.75321924685203    3.76620799551170
C        11.47373730388400    0.56073850250422    2.28143278572633
H        12.11769744616261    0.42039739780531    3.15487273284633
H        11.32624625813228   -0.38868799476414    1.76368838907702
C        12.06116404878880    1.61360304298758    1.35533929707689
H        11.39614645864391    1.78317413226587    0.51195568025996
H        13.02375493814160    1.27362106521652    0.98475250380092
H        12.20317043623517    2.54574924073648    1.89680696802688

