46
CSD_code = CODKUB | q = 0 | S = 0 | Stoichiometry = C15H25B5Fe | MND = 11
Fe        0.38278555695471    2.07753702145733    2.52779372143937
C         0.45375935191584    0.35711719836655    3.44631487091103
C         1.04391377501257    0.24903249046850    2.20054579559707
C         2.03577122185653    1.13162233877870    1.83618087826370
C         2.35818724114884    2.19008337839242    2.65856078158742
C         1.73947100920392    2.32090076790442    3.89346739785849
C         0.83322962578244    1.36649544556813    4.32048905028765
C         0.15151790777099    1.55719154825380    5.61564879392234
C         0.24931963370468    3.87250340731407    2.05875091778894
C         1.40804178385933    4.77085416382200    2.13537976193537
C        -0.04038183660799    3.01983095490020    0.96186830179380
C         1.01495426410310    2.80162379769620   -0.05526611276849
B        -0.60708235874035    3.52570724778497    3.22996486109750
B        -1.37580607204173    1.92312546454120    3.01220782110440
B        -0.91200498853401    1.60950862285636    1.32493009524933
B        -1.58745537644876    3.07028039913734    0.50541293962271
B        -2.48432474418560    2.00672110161303    1.75027757764421
C        -2.54080177833814    3.69907815002093    1.51287224696972
C        -3.75188623190993    4.53063333985158    1.20578171014851
C        -2.20908388698550    3.35249939566550    2.88489397153437
C        -3.17954090209225    3.73063865625946    3.98233263545534
H         1.82070013702179    4.70942861322830    3.13419568933302
H         2.17676622632756    4.56017941181244    1.40260516176387
H         1.08283564380184    5.79950330343622    1.97820507678986
H         0.96009023711762    1.77607754753046   -0.39680637818126
H         0.89906127917137    3.45713380082965   -0.91744285066538
H         1.97958474801208    2.97521838270592    0.39231746188994
H        -3.91115260157777    4.58663758400152    0.13075878061375
H        -4.65986560223315    4.13743551699445    1.66539525834460
H        -3.60743502158343    5.54642018258686    1.57851426415930
H        -2.84551985645097    3.33067975830873    4.93683773202129
H        -3.24701095844517    4.81467180790982    4.07765138122070
H        -4.18125309346236    3.34801255933306    3.78919460440678
H        -0.44831837055425    0.69414416460708    5.88199214053882
H         0.86733773951617    1.74846201703845    6.41123528939227
H        -0.49354952933237    2.42337067382389    5.51398341474037
H         1.90320178313156    3.17983612790709    4.50262290636929
H         3.07331427933445    2.91507556728982    2.34470560382760
H         2.51143367318096    1.01203552278485    0.88889669593138
H         0.73421425301716   -0.52254621269779    1.53555423706634
H        -0.32372422727386   -0.32325962831730    3.70312502728110
H        -1.65694223214967    1.26305645775227    3.92066468173948
H        -0.65599877558714    0.66501870780210    0.70327036640959
H        -3.51432311382122    1.44128811085738    1.70101864853833
H        -0.30927602068330    3.94568854526057    4.27350163976334
H        -1.82945379190648    3.11954658656095   -0.64850485073703

