88
CSD_code = CODLAK | q = 0 | S = 0 | Stoichiometry = C35H46BCoO2S3 | MND = 5
Co        2.14841867704297    1.13150625527771    3.84380007453145
S         1.60104862686358    1.53394748113518    1.59342076035423
S         2.49162494553421    3.41419192896680    4.14940841872147
S         4.39179725230952    0.78088321170006    3.30785111020308
O         2.47136113979165    0.22806326870862    5.42131308109067
O         0.36195652896915    0.93237663384971    4.33071293501316
B         4.01806235663310    3.13540258070178    1.65538043964827
C         6.31596613428439    4.24982793100064    1.10801724418431
H         6.71196933968367    3.69520620117348    1.94839602627534
C         7.16684090496968    5.08686365769184    0.41028720176786
H         8.20488376144896    5.17058147885508    0.70377794752702
C         6.69181238387750    5.81971923030599   -0.66339054261125
H         7.35161296147309    6.47435031246566   -1.21542218423302
C         5.35930546018405    5.70687606289865   -1.01535664686640
H         4.97079271271553    6.27983965340909   -1.84686093997323
C         4.51963052062189    4.86524052249314   -0.30568213780925
H         3.48187575758159    4.81017250713393   -0.60214804906639
C         4.97019486362272    4.10251008225945    0.76902490812648
C         2.51006910137468    3.00460966680299    1.01738631315376
H         2.54942816265054    2.88623002427187   -0.06507091405774
H         1.90219176422503    3.87505116699752    1.25547708333347
C        -0.18821137029294    1.97554550318352    1.28660348130027
C        -0.64165987993699    3.06316815633284    2.24607214599634
H        -1.69233398726539    3.29167085282460    2.07266681277326
H        -0.06902677190410    3.97790926396948    2.10813884527471
H        -0.51820618481721    2.73195287159537    3.27344727251218
C        -0.32310553992280    2.42320892522528   -0.16421070755345
H        -1.37727055670227    2.54640987370895   -0.40739117419645
H         0.09877889845657    1.67930206170087   -0.83687443180731
H         0.17582307440454    3.37306548672978   -0.33727117713395
C        -0.96523266109317    0.68324119491573    1.50741289193266
H        -0.81493417814495    0.32367907111145    2.52147466528583
H        -0.63194495743480   -0.08535972378965    0.81316758790229
H        -2.02862528530760    0.85536291245704    1.35109362223026
C         3.94428144102269    3.84435056371192    3.15025021591362
H         3.88971428614770    4.92770015666115    3.04005538516799
H         4.82745649921610    3.60091124482501    3.73580540453926
C         3.01266054286046    3.78223105855780    5.90697129060501
C         3.45425894841584    5.24010277602826    5.95939119475391
H         3.64966837810849    5.52254113934697    6.99246362576273
H         2.67639736485506    5.89142158665752    5.56677514990655
H         4.36414743934943    5.39925742640610    5.38649023588988
C         4.12304723258248    2.85032899254937    6.36002410822158
H         4.35595369968769    3.04239989251768    7.40616257628702
H         5.03001850131060    2.99877494873999    5.77815285997369
H         3.81689618223426    1.81204619664517    6.25795899115192
C         1.75148523093468    3.58026098350841    6.73942306756464
H         1.41619653571770    2.54746127617540    6.68922925330299
H         0.94856126577510    4.21997893044103    6.37892611669774
H         1.94803511239481    3.82282815765095    7.78210405853593
C         4.69177131836616    1.62806834440035    1.72838348911373
H         5.77505589704471    1.65778962223178    1.62223195761819
H         4.28910859261016    0.99913485606726    0.93635984022168
C         4.54339957166205   -1.03996630365741    2.91978099239384
C         5.77795195406361   -1.26784257937120    2.05839648852259
H         5.94223731591359   -2.33769137440615    1.93904894333962
H         6.65845118529416   -0.83710241813090    2.53018438517656
H         5.66410383336286   -0.83129567245017    1.06960167518914
C         3.27852300477008   -1.51527067655079    2.22299636817099
H         3.14840004028050   -1.02052645179536    1.26231893515745
H         2.40271523441371   -1.30137511154885    2.84285604855173
H         3.32458231906587   -2.59001034502847    2.05266231663650
C         4.71210794870880   -1.72219678281382    4.27236649571477
H         3.87409977292644   -1.48366889022687    4.92203453314296
H         5.62752399838768   -1.38651926438511    4.75456119603929
H         4.75947091236489   -2.80221241645097    4.14580502248391
C         1.40579696739414    0.06014760763952    6.15296094488925
C         1.41489424714263   -0.43400493829450    7.49565169468557
C         2.61609319693324   -0.81565477799967    8.10771990478843
H         3.53072745212904   -0.71629205989835    7.54211062273856
C         2.62299632796559   -1.30101436919582    9.39142121255845
H         3.54987586118583   -1.59323580134651    9.86215701664804
C         1.42045036274630   -1.41453137873389   10.08500997946525
H         1.41861398023316   -1.79799961022403   11.09494678713077
C         0.23302767087296   -1.04164933060499    9.49619230161610
H        -0.67485175524605   -1.14552098741979   10.06891879303324
C         0.18448890794806   -0.53871433328130    8.18938791879615
C        -1.05229073968422   -0.13065889713526    7.54866748633500
C        -2.29786962783243   -0.21482363600762    8.18482991476725
H        -2.36583983759514   -0.60176145295053    9.18916557942162
C        -3.45844774499780    0.18438424063433    7.56109835156738
H        -4.40063257464165    0.10423432832859    8.08348051286803
C        -3.42826003516878    0.69062913869478    6.26396681083699
H        -4.34311313082609    1.00378755888875    5.78320398285498
C        -2.22731984637040    0.78545838123964    5.60647008132542
H        -2.17078755510878    1.17142808586480    4.59990537307401
C        -1.03841284197200    0.38127235431528    6.22777525229538
C         0.21148519893736    0.46210370311742    5.53433529264992

