81
CSD_code = CODNEP | q = 0 | S = 0 | Stoichiometry = C32H40Br2N4O2Pd | MND = 4
Pd        7.47173271292318   -0.00020774100284   -0.00032546705641
Br        6.15046099367440    1.01663074205647   -1.82257347550284
O         3.31808192054388   -2.42041099467042    2.09166865799410
N         4.72167936608646   -0.03855793957222    1.33823221218259
N         6.06782700728716    1.27354310346283    2.36769536727520
C         5.98215853129265    0.43971192341612    1.31573441373633
C         4.02979730904158    0.48312150250369    2.39882792344169
H         3.01655589749750    0.20953176526519    2.60498323916575
C         4.87807630601615    1.31292695769321    3.04620739518552
H         4.73875871186035    1.92389357590438    3.91368520073870
C         7.20506497907419    2.09195146813693    2.70312243182241
H         8.05138849414929    1.74956856843363    2.08647408986564
H         7.46838492649706    1.93269388052841    3.75353288401220
C         6.94433834035418    3.55416476500851    2.43929992869127
C         6.17015356706292    3.94831754856175    1.35519370486920
H         5.74416872356422    3.20747374460139    0.69254046751426
C         5.95071478649912    5.29151141771568    1.10533573129703
H         5.34742539147106    5.58518084953616    0.25950264999192
C         6.51016515922147    6.25211842119231    1.93060834838307
H         6.34078275481259    7.30020629749353    1.73420263368900
C         7.28922713582901    5.86468049626540    3.00794931526317
H         7.72987603664990    6.60983803002744    3.65361184175514
C         7.50224444163257    4.52156106631736    3.26372309615842
H         8.10934566866942    4.22136026730611    4.10593051709521
C         4.16994857986585   -0.98436547884954    0.40315118095772
H         4.83081819977319   -1.03658990724629   -0.46489453306851
H         3.18556537069632   -0.63232989170930    0.07551944481394
C         3.97801270991561   -2.34666050626619    1.08840933678298
C         4.71209316499423   -3.52792092285195    0.47617610252104
C         4.29858744746452   -4.80974127158238    1.20168290874429
H         4.48432779216779   -4.71721615058575    2.26849783159529
H         4.86370963510030   -5.65537380484544    0.81849321781897
H         3.23782080851820   -5.00140173967662    1.05864773030213
C         6.20695457712975   -3.27231514712953    0.70647166747098
H         6.55090947048024   -2.35664182142234    0.19954293375886
H         6.78336790722431   -4.10856607921148    0.31855507104214
H         6.41906457910587   -3.17593585163306    1.77005858128506
C         4.41150298530934   -3.66868537106225   -1.01925582784529
H         3.34660379223771   -3.82077378202694   -1.18023575191326
H         4.94566043053328   -4.53217380573209   -1.40998789372802
H         4.72208811126547   -2.79930461291364   -1.59200056046362
Br        8.79202195633860   -1.01898430772754    1.82124111005635
O        11.62473647716093    2.42223373361449   -2.09230285516714
N        10.22279178956925    0.03894972791582   -1.33686905536330
N         8.87829541673966   -1.27478003351892   -2.36638959396181
C         8.96234630618639   -0.43958072636284   -1.31543313770537
C        10.91619164550366   -0.48406983385945   -2.39584211572919
H        11.92970723105193   -0.21063785555446   -2.60087705081427
C        10.06896084215679   -1.31491107738221   -3.04324711330232
H        10.20957683377567   -1.92705369672065   -3.90968301772724
C         7.74123473206873   -2.09301790000825   -2.70265926990427
H         6.89389118879861   -1.74882552589789   -2.08839219799829
H         7.48029605851354   -1.93545225041236   -3.75392277345273
C         7.99972234245963   -3.55500611409780   -2.43556729246563
C         8.77297257765269   -3.94818586459384   -1.35046310953026
H         9.20029891316718   -3.20674667357180   -0.68936365741544
C         8.98935598563267   -5.29126622543676   -1.09728269621622
H         9.59178128418565   -5.58417367236411   -0.25057544829802
C         8.42773208021995   -6.25264110896261   -1.92017915260285
H         8.59455015080187   -7.30062590727164   -1.72104827739528
C         7.64969121115344   -5.86611239320473   -2.99860438024688
H         7.20734445258451   -6.61186009504287   -3.64242512576192
C         7.43975784029660   -4.52316363212434   -3.25772026799943
H         6.83339800589199   -4.22362506921695   -4.10070196361324
C        10.77355507522338    0.98667297909233   -0.40309604478554
H        10.11362079077075    1.03852363080482    0.46569095215624
H        11.75896634281690    0.63668903612415   -0.07640116804758
C        10.96260539796776    2.34849992245660   -1.09049892316887
C        10.22381300544640    3.52886317813441   -0.48222165827764
C        10.63073856327730    4.80965834902885   -1.21323868201655
H        10.43609755027456    4.71534110369929   -2.27831096675491
H        10.06827460715317    5.65555725120309   -0.82674179316735
H        11.69253667787470    5.00215758732649   -1.07943987266124
C         8.72970142283011    3.26676016398144   -0.70926306598534
H         8.38953083647346    2.35266086511170   -0.19698194498760
H         8.15075233126586    4.10308230900260   -0.32526342886377
H         8.51675276302539    3.16398825981341   -1.77210747899156
C        10.52639427813234    3.67632144985938    1.01219577556817
H        11.59041536228844    3.83739060423726    1.17029017121568
H         9.98619627483127    4.53659856683686    1.40174970829537
H        10.22414867494418    2.80595767365650    1.58795231544152

