46
CSD_code = CODNUE | q = 0 | S = 0 | Stoichiometry = C15H21CrN2O6P | MND = 6
Cr        1.13886476932531    2.66547257227737    3.41018129551583
P        -0.19862782416422    4.36850174690084    2.06068752783723
O        -2.44655554963273    5.75039980855939    2.27206174371622
O         3.68497513126880    4.25407379235748    3.67414966279040
O         2.37209949353116    1.13079330034921    1.14924665112083
O        -0.91942377508289    0.49329873697261    3.16733412328228
O         0.04961251031584    3.45572529024478    6.10326529184601
O         2.65689981907038    0.58295210058969    4.92623562665272
N        -1.01311969654158    2.66073377590461    0.15422006853736
N        -2.58966780190048    2.97257892351596    1.81960183187135
C        -1.28390261785350    5.69391774650014    2.63935803538470
C        -0.65484794663037    6.82828828549745    3.44438818159568
C         0.84958953252891    6.66047854738564    3.61394687110622
H         1.07809626273711    5.78004152627752    4.21557248117616
H         1.26434241214403    7.53240993262798    4.11627166581877
H         1.33967375091603    6.56108351926801    2.64461789527217
C        -0.95934752396281    8.14148663978098    2.71612593493525
H        -0.43658784642936    8.17249286244799    1.76214511464656
H        -0.64136804223036    8.99026352124699    3.31707053249389
H        -2.02677054772052    8.22278643362313    2.52680759695035
C        -1.34489791536804    6.81974356219624    4.81362709143360
H        -2.42049874897044    6.92466983396187    4.69148969668074
H        -0.97960210875678    7.64407089989743    5.42193078314458
H        -1.14334899516966    5.88732041716572    5.33801419780930
C        -1.38641874743349    3.25995808408918    1.30782145026291
C        -1.29927263516757    1.27290043478163   -0.14219709376072
H        -1.83611527632295    0.80500228644411    0.67735319939559
H        -0.35253359447620    0.74054537770132   -0.26950282068698
H        -1.87598464090311    1.17014285927460   -1.06474482703752
C         0.03363667407192    3.22495754011213   -0.66398383723526
H         0.02928938173839    4.31006373735665   -0.56642761285022
H        -0.15965970305299    2.96038224070499   -1.70487659336100
H         1.02265551280067    2.84911216839792   -0.38536436853792
C        -3.71358733303699    2.55983003371841    1.01004221173569
H        -3.48430734637058    2.66898289935632   -0.04579920734455
H        -4.55778065943078    3.21167488358374    1.24573135217554
H        -4.00699265617781    1.52810425851407    1.21998900768340
C        -2.93178611332287    3.19568830212611    3.19939281140897
H        -2.02700266245453    3.31912368947008    3.79656071652122
H        -3.48843304000078    2.33047193591131    3.56653133222549
H        -3.54644538932860    4.09320431194976    3.30743901737063
C         2.65745539079752    3.76057942460308    3.54251424801758
C         1.88214178379995    1.83398340631197    1.92212522093908
C        -0.20364714038118    1.39649120952487    3.25713776373704
C         0.43636704836460    3.25616142042666    5.03796154292012
C         2.07873440484267    1.40575572007540    4.36184658483878

