47
CSD_code = CODQAN | q = 0 | S = 0 | Stoichiometry = C26H18N2Pt | MND = 4
Pt        6.37601193659407    6.86983613742561    3.31214584454420
N         7.19085022103563    8.28221332742761    2.12206399942301
N         8.32826060145244    6.41000326055544    3.54317469863584
C         5.69703076546248    5.45350141663851    4.47384301224902
C         5.37672215836715    4.54198111997048    5.21099820297992
C         5.00917588299521    3.47787092916769    6.06904142005283
C         4.34660515469752    2.35805616073484    5.56236017039361
H         4.10937912396776    2.31989109531393    4.50910215350513
C         5.31422223140434    3.52992954810311    7.43078140113019
H         5.82256634183083    4.39865584274600    7.82487423445779
C         3.99994439559640    1.31778076741958    6.40179145939819
H         3.48642840554450    0.45422421759986    6.00275396412715
C         4.96067254093099    2.48572217070939    8.26270336763100
H         5.19720418201796    2.53486649215417    9.31653924424064
C         4.30484740995996    1.37653088847667    7.75265405948367
H         4.03043760877604    0.56123538270417    8.40642990261203
C         4.52258475410582    7.42709447170709    3.04622874623934
C         3.40812889956280    7.86027567881761    2.82883615816616
C         2.11308383236657    8.36911226978355    2.56880362865015
C         1.72078434455595    9.60219381706055    3.09405809009591
H         2.41280609082216   10.15637353051187    3.71238863680560
C         0.45958322696541   10.10004017339671    2.83149039642669
H         0.16197157398464   11.05386075711373    3.24451615218700
C        -0.42487357223836    9.38271178578904    2.04165538366882
H        -1.41045702576891    9.77574743427379    1.83767911922955
C        -0.04184636459900    8.15841582217777    1.51661985667808
H        -0.73153212789721    7.59644165237738    0.90244179196059
C         1.21603369601968    7.65074057744530    1.77577389437514
H         1.51967385410105    6.69575413256068    1.37207982225037
C         6.53081209782645    9.19114172832949    1.40553945285203
H         5.45234766364808    9.16966928710847    1.49429955369269
C         7.16601963158476   10.11207710588420    0.59600618995063
H         6.58705183965023   10.82791735346611    0.03563114418456
C         8.55372649671719   10.09346505825440    0.52113474711540
H         9.08496278014305   10.79624379856237   -0.10207974051077
C         9.24361268492461    9.15376168902730    1.26184892399541
H        10.31992344952012    9.11870726422232    1.21675425081507
C         8.53940394103623    8.25309790375476    2.06107363438233
C         9.17684440005141    7.22113400452166    2.87602405422471
C        10.55850132775744    7.05972805213764    2.98006833213672
H        11.22711857297153    7.71760557386212    2.44931012095345
C        11.07044957020706    6.05184481801132    3.77362922002911
H        12.13703623983009    5.91582112384793    3.86485384374460
C        10.18417163561051    5.22135719819089    4.44908990109862
H        10.53907294110499    4.42102013119398    5.07770815142850
C         8.82791560848839    5.43796459198058    4.30512254352348
H         8.10202897632047    4.81688245750559    4.81375686480695

