74
CSD_code = CODTOG | q = 0 | S = 0 | Stoichiometry = C31H30ClCoN6O5 | MND = 6
Co        9.43852061552320    6.29896694042464    8.10711453245572
Cl        8.02794197952850    7.73095366634264    8.94245975659438
O         8.09762880798647    6.25564855447390    5.64707722094557
O        11.58921348327620    8.06791388421607    8.89890004486684
O        10.90392367931781    6.21549919273628   10.49115731040774
O         7.18458707615266    4.63106340044438    7.37267236842626
O        14.24728631451901    1.56053916125559    6.68522235985417
N         8.95227032994725    6.88567417336322    6.37065874503314
N        10.67274530196240    7.72608328795636    7.95984459587442
N         9.87777143508110    5.75898489055361    9.87034671680662
N         8.09406311704356    4.97980495003732    8.31791523597325
N        10.69782522517384    5.00093612898548    7.36362952619756
N        13.28310147566297    1.61264295799031    4.64286126550822
H        12.58795791674581    2.03372325114250    4.04774181948223
C         9.54793502139108    7.97216193200540    5.97828326249796
C        10.52600584864630    8.46634952535507    6.91213797216557
C         9.06470679107811    4.88903555785586   10.39176554128469
C         8.02277623573509    4.45845644374281    9.49675114597863
C         9.25561918924279    8.64077901229659    4.67428062082615
H        10.15278726135265    8.70672892648134    4.06040589731637
H         8.87652708641185    9.64739672681762    4.84165750037651
H         8.50047645309253    8.06039016562146    4.14892143489227
C        11.30001526501788    9.71603970048352    6.66623773425199
H        10.61449744554097   10.55108707045831    6.53541085860346
H        11.89778513219276    9.62067428882066    5.76113712564248
H        11.95245476182384    9.91447317690555    7.51214771855469
C         9.20586767451343    4.37305965421564   11.78682907349775
H        10.07007361421247    4.84806103862820   12.24576629161836
H         9.34554881544389    3.29291267560858   11.78885081045574
H         8.31805104087239    4.60859996902712   12.37096849024522
C         6.97280260373876    3.48496413363989    9.91052499792112
H         6.27862856565401    3.32383992835936    9.09030902085775
H         6.43109981141649    3.87346390612497   10.77067101908281
H         7.42730564971253    2.53690455108441   10.19371184399448
C        10.32269053916004    4.16586179130270    6.39225728399242
H         9.32143530247452    4.27721872885136    5.99902148777208
C        11.15339203030127    3.19271804484448    5.86972506578459
H        10.76666987627500    2.53070492266386    5.11016819519572
C        12.44767235934872    3.06717428769575    6.36485126942472
C        12.83152075483963    3.93723781278682    7.38132076224036
H        13.81975998188682    3.85691206340916    7.80559642770008
C        11.93838206631579    4.88251602434929    7.84463637432481
H        12.22942799165252    5.54969927360295    8.64429786843573
C        13.41441209979890    2.01057318779504    5.92280741180546
C        14.07156786750842    0.53939832209188    4.06447105441384
H        14.73133780504575    0.17248107075832    4.85419816286835
H        14.68874616519543    0.94305024892671    3.25452496712369
C        13.17634321480288   -0.54734947047504    3.52714487886337
C        13.04158921936865   -0.68440130285115    2.15212068251224
H        13.61007047662244   -0.03488003812770    1.50066679578998
C        12.20705783342094   -1.63385814719642    1.59781542359757
H        12.12607016812356   -1.72340143760906    0.52436555736422
C        11.45753127532760   -2.48007650272536    2.41407755499234
C        10.57636543455774   -3.46229110999210    1.87384142814099
H        10.50304075032472   -3.54001194426218    0.79837605595403
C         9.85260470383599   -4.27371955916346    2.67777918964420
H         9.18710048171156   -5.01589824998430    2.26040016443037
C         9.94457124566134   -4.17609723777481    4.09731424295729
C         9.20534312317238   -5.00206231094011    4.94521036695243
H         8.54240188973625   -5.73892297329966    4.51495423296360
C         9.31427781161053   -4.88520596434979    6.31893035821169
H         8.73424960433370   -5.53359310727546    6.95941047952523
C        10.16025978182867   -3.94591709614140    6.87838954121445
H        10.24290056395659   -3.85979227017521    7.95232350513455
C        10.91925760730332   -3.09981514564136    6.06827842462756
C        11.81091602728472   -2.12882664499551    6.60701710638051
H        11.89909422969281   -2.05871700301354    7.68187829561468
C        12.53994764354138   -1.31470301450983    5.80867934764217
H        13.21311259424157   -0.60375874667667    6.25915779386486
C        12.44551844128281   -1.38742806079222    4.38520558754273
C        11.57510874841293   -2.35746498769398    3.82120624220654
C        10.81475444243574   -3.20930650300631    4.66037432619669
H         7.37896892177603    5.26636858316706    6.58055849781403
H        11.41392789927952    7.41597164232194    9.68287773126656

