67
CSD_code = CODWOI | q = 0 | S = 0 | Stoichiometry = C30H33NNiP2 | MND = 4
Ni       15.15673883916889    0.56049725968361    4.72021192205569
H        16.42373160231840   -0.09930460060087    4.84513397694640
P        15.36802345927340    1.83868147142831    6.41835766132147
P        14.56991870194665   -0.47304661155858    2.94976214898702
N        13.41194189252623    1.45588853527992    4.55277544492906
C        16.16291408437154    1.61479189626109    8.03026274952871
C        15.56337876937557    0.75491568218625    8.94737459211929
H        14.62888456455027    0.27414457586552    8.68926611545513
C        16.15534716405109    0.52436109206253   10.17424085450126
H        15.68226870031700   -0.13632926420837   10.88617653825470
C        17.35705085143612    1.13906529114334   10.48969030035038
H        17.81859747326389    0.96129452955872   11.44990187897780
C        17.97059676393648    1.97367356645894    9.57002116259912
H        18.91359824716392    2.44248187904339    9.81144170627059
C        17.38182408700694    2.20759870152945    8.34019303499058
H        17.86517822542869    2.85058573696063    7.61783616752184
C        15.99978236122533    3.41676140746575    5.77540667264992
C        16.39190312076093    3.42986949120105    4.44134764144053
H        16.36327105669429    2.49043526219914    3.88243956959197
C        16.80524250143720    4.60860418063364    3.84922220662487
H        17.10855422181694    4.61967996510929    2.81256828986227
C        16.82578468734624    5.77779139222302    4.59265860335925
H        17.14849923001901    6.70163910666981    4.13519396898855
C        16.42741062285279    5.76959926035482    5.92104176004776
H        16.43985860974969    6.68658892483492    6.49244240437749
C        16.00772007387911    4.59361988216755    6.51507457479579
H        15.68562284855545    4.58274831503693    7.54728889656362
C        13.64148613189583    2.22529630745974    6.78762169282970
C        13.14093529499470    2.71833108196080    7.97732631822096
H        13.80927900200150    2.92027305547724    8.80386804441220
C        11.77866165554982    2.92831242054740    8.10830027132129
H        11.37286443500911    3.31139573024618    9.03236076662030
C        10.93736947381088    2.60756437074564    7.05124214363826
H         9.86869672626940    2.72358987086282    7.16808065954257
C        11.43115704662654    2.12844160059120    5.85606528827935
H        10.74551618751012    1.84579166320583    5.07026980815660
C        12.81288044108305    1.95421621038782    5.67504932867117
C        12.82978802934528    1.53029468101629    3.31944879728400
C        11.90679283107289    2.51201857561801    2.92129195625271
H        11.63731225094269    3.30213892978931    3.60693833470748
C        11.38619342704275    2.50735033462643    1.64548248236022
H        10.68281961382104    3.27749462794524    1.36067024428287
C        11.75892164575604    1.54389631667552    0.71710781208767
H        11.33373109102507    1.54855203871087   -0.27520033319296
C        12.71067532142250    0.60117493621925    1.06439091519276
H        13.03736383649312   -0.12591484730204    0.33425324433315
C        13.24747606275254    0.59931355232781    2.34017081167203
C        15.65065503590903   -0.79755944121372    1.47914107334538
H        15.02105345728278   -1.11060890382014    0.63929319762274
C        16.33840773542454    0.52313203116400    1.14489493753300
H        15.60256129697348    1.29837871239097    0.93327258801113
H        16.98969761191584    0.41566729590934    0.27921790405953
H        16.94132786994458    0.84013827136581    1.99735921255852
C        16.67514815427827   -1.88136852852179    1.79137970079951
H        16.20628821801987   -2.85902315697031    1.87660764283862
H        17.18002123736209   -1.65236005831769    2.72971094800102
H        17.42216607381492   -1.93114309526822    1.00093319443625
C        13.77519679336267   -2.09585711311124    3.39044160487663
H        14.59735375436868   -2.80412962482077    3.54696226856362
C        13.06845543209030   -1.87405270046789    4.72690476122522
H        13.76396359477024   -1.39922600941731    5.43445590645211
H        12.72916352373286   -2.81639867110056    5.15453966899860
H        12.20536804942589   -1.22154998138337    4.59925758342149
C        12.83017354532546   -2.62233241694057    2.31936141151209
H        13.35843477023481   -2.81123438463428    1.38675821433913
H        12.03323708285965   -1.90563273623907    2.12804076595538
H        12.37786349817714   -3.55690787546948    2.64859798532741

