41
CSD_code = CODXOJ | q = 0 | S = 0 | Stoichiometry = C16H21IN2Pt | MND = 4
Pt        0.90196764885285    1.47540531696090   27.25675811942963
I        -0.06643669846765    3.60627519470384   28.49328112711751
N        -0.46946026792619    0.23144684916364   28.16484776158470
H        -0.88785740593474    0.66044334183132   28.99613913201060
H        -1.22421021712332    0.02464216793654   27.50289734837996
N         2.37530844718915    2.61528119167856   26.31145077992413
H         2.87026934611986    3.13421650439461   27.04538208253981
H         3.05701810602713    2.00506199741302   25.85430257674827
C         0.26123804988269   -1.00272579673771   28.51571988988864
H        -0.43590283093953   -1.81148608389255   28.78140199734399
C         1.09537797204894   -1.36696344358259   27.31087141968381
C         1.55379656191840   -0.29403238886753   26.53017969403537
C         2.32840744119447   -0.60638028408941   25.41900141071512
H         2.69386075620202    0.17131483820850   24.75861727176824
C         2.64988003132359   -1.91867635258581   25.10762297285376
H         3.25810518652104   -2.12932606740250   24.23869272408723
C         2.19577515885551   -2.95755053865697   25.89888170471158
H         2.44687590211372   -3.97925493004351   25.65443133726276
C         1.40942213671359   -2.67935370197826   27.00344168996992
H         1.03967947052339   -3.48334228700191   27.62587790581779
C         1.16143355481169   -0.68802066167678   29.71011297102199
H         1.78876746478535    0.17375527471269   29.46211170650239
H         1.80670647576467   -1.53383460061735   29.93038270611623
H         0.57156633488773   -0.45488161699020   30.59499578848407
C         1.84834243926176    3.57947990257865   25.32170502849480
H         1.27513084260879    4.33178802877491   25.87455637733090
C         2.97063176531283    4.26834908052891   24.58009413211870
C         3.09336247908927    5.65066676794199   24.62704728413632
H         2.38092774650199    6.22922250154571   25.19701394202777
C         4.11710738951540    6.29001548858356   23.95004177650010
H         4.19996917769161    7.36543653852791   23.99481495181406
C         5.03354416236599    5.55265583186243   23.22063596323644
H         5.83324452660286    6.04979701952867   22.69249735091656
C         4.92106982037476    4.17359719781905   23.16994288365530
H         5.63225296547466    3.59243001431109   22.60168942149920
C         3.89656094760626    3.53609337628161   23.84547570198890
H         3.81980507109719    2.45880745735979   23.78684295829862
C         0.89741379823412    2.85601318229497   24.36956347771633
H         1.42466976788335    2.12599970909426   23.76105918024043
H         0.41317218399986    3.57197411096154   23.71119423827898
H         0.12980629103509    2.33765986913010   24.95522321375663

