83
CSD_code = CODXID | q = 0 | S = 0 | Stoichiometry = C38H41NNiP2 | MND = 4
C        -0.37260226911542    0.72702486219820   20.68899771102944
C         0.20405168865073   -0.52453725712196   20.86788318469802
H         0.67766120251872   -0.74579605936003   21.82440858941702
C         0.18665147947336   -1.45394940245456   19.84483819300610
H         0.64085202062632   -2.42422781538747   19.98438784629188
C        -0.41303946785504   -1.13281642520014   18.63807024269011
H        -0.43014422099017   -1.85498028026498   17.83491062124927
C        -0.98614917622224    0.11648243854173   18.45408914126390
H        -1.44574167408680    0.36378008254969   17.50799667627600
C        -0.96274216114807    1.05082107784912   19.47283094329702
H        -1.39621144921726    2.03127531541062   19.33015709814858
C        -1.83599870758853    2.68390532394198   22.18927167015609
C        -2.99519934039497    1.98901951812873   21.85896124016462
H        -2.92449946169378    0.98578638526762   21.45981930129976
C        -4.23271845104745    2.58192823326406   22.03021547474681
H        -5.12972117145348    2.04028566069324   21.76462206884290
C        -4.32436538043362    3.86678712381402   22.54038249094056
H        -5.29242587325111    4.32887191481883   22.66788487832932
C        -3.17463802781106    4.55447396015351   22.89389637033116
H        -3.24389857442945    5.55202982336231   23.30300097905729
C        -1.93679600530263    3.96196401694175   22.73293426698162
H        -1.03701023017724    4.48459643124090   23.02814078829437
C         0.82091981770067    3.18752018877000   21.23324707383526
C         0.41396548829300    4.34402563995517   20.59760336514394
H        -0.63569117985336    4.60012966264943   20.54703537113200
C         1.36301113769951    5.17766497398217   20.02711530290909
H         1.05627757142247    6.08471436568090   19.52823527394443
C         2.70841912674190    4.84951330720394   20.11586514568355
H         3.44861260915437    5.51741868395629   19.69754789030256
C         3.12320328095440    3.68695358287035   20.73300120626988
H         4.17703367893342    3.46127545553896   20.81381104096974
C         2.18082208537575    2.81194194955954   21.28893170558023
C         3.48859510007562    0.82652402870679   21.56814429479806
C         4.09423793854348    0.84285396170733   20.29861677551620
H         3.74448702632081    1.54202395725751   19.55327934005369
C         5.09197634701572   -0.05133626507092   19.98414537818882
H         5.53777051167548   -0.02156948907650   18.99949326781660
C         5.52183686527515   -1.00046327681103   20.90262540852771
H         6.30697625516817   -1.69495082584185   20.64415767908549
C         4.91225915195218   -1.06767257433495   22.14310887040172
H         5.22100981920053   -1.83321621167706   22.84119039608505
C         3.90707337237407   -0.17570102175102   22.47816961781466
C         4.15672756489272    0.71670705896216   25.20941586373203
H         3.60932640030040    0.85367909959662   26.15130430802926
C         4.46926305928638    2.08935148562294   24.61391782089138
H         3.55744290713551    2.58879380635998   24.28089020937805
H         5.12300652598085    1.98013909169450   23.75006638122155
H         4.96606617143767    2.72518819414364   25.34534903274113
C         5.44737020208072   -0.04596326194427   25.48308265482157
H         5.26673479457507   -0.97167684723162   26.02418232912754
H         6.11075399348270    0.57143879904092   26.08841601695404
H         5.95959629051286   -0.27326738032372   24.55006676639355
C         2.98321282141967   -1.91557639817192   24.59188766817873
H         4.02718267535444   -2.24678084151227   24.58810258971870
C         2.19679975191467   -2.74630636401220   23.58268265406819
H         2.61804669532809   -2.63872373035377   22.58443788258990
H         1.15846082169620   -2.41843748999335   23.55611730379265
H         2.21665084825606   -3.80010791317103   23.85663308520373
C         2.41602160722303   -2.09158329994930   25.99674394414201
H         2.90898181937644   -1.43487236032107   26.71062211285956
H         2.55704570603721   -3.12003534613226   26.32751551026926
H         1.35007297315899   -1.87822801866981   26.00802814182574
C         0.04546059331346    0.65163448007321   24.92132856273309
H         0.65478797536448    0.21350435037561   25.72748452379811
C        -1.11440764570109   -0.28665745634509   24.60806118689216
H        -0.74661788477066   -1.26303652914097   24.29671103480583
H        -1.74750129910936    0.10771314943339   23.81339470589557
H        -1.72752579279028   -0.43262713249982   25.50153124912717
C        -0.32517964038657    2.03012355380691   25.33218372810016
C         0.71049499967004    2.91536392444661   25.66740971297655
H         1.73486675242473    2.55813310510369   25.61960408160074
C         0.44840592547436    4.20831915626404   26.06882208989896
H         1.26403577532387    4.87553754866041   26.30946314655338
C        -0.86251708957505    4.64782523244155   26.17877976098544
H        -1.07311669631605    5.65513218231608   26.50718720154808
C        -1.89739344743690    3.78307749340311   25.86952841305903
H        -2.92212798799675    4.11470231198008   25.96058840772574
C        -1.63766304902724    2.49501090991226   25.43716618286106
H        -2.46610558746255    1.84688005880212   25.19753858302631
N         2.47316079338856    1.64678642373439   21.94519874835323
P        -0.19565400144596    1.92627581321788   22.04916506809355
P         2.97498050472148   -0.13712731014240   24.03471065483251
Ni        1.25504241991262    1.06881542883624   23.43035650061177

