38
CSD_code = CODYOK | q = 0 | S = 0 | Stoichiometry = C15H19IN2Pt | MND = 4
Pt        2.01968173566816    9.57650872535770    8.81123992100653
I         2.59515102908585    7.95042972522868   10.81000245543633
N         1.19700534688703   10.98905115495926   10.09682023098133
H         0.17707509265451   10.89029286681176   10.07668554798748
H         1.49883318299560   10.88070330042385   11.06977069132186
N         2.72794855110083    8.33967504852190    7.50685557045552
C         3.07599277654800   12.50679818402605    9.88828382903993
H         3.63310863354667   11.64112157358729    9.51236159542605
H         3.23746603017115   12.59331951955634   10.96160309326225
H         3.45463502863094   13.40132614572207    9.40176917020347
C         1.59378990842897   12.31029382215898    9.56752898412061
H         1.00449567265716   13.11708300299853   10.02896934826122
C         1.38598802435279   12.26040525498853    8.07197309863841
C         1.05665731764723   13.37829384534580    7.32627869709351
H         0.91242241507166   14.33291264409199    7.81477037069016
C         0.91055450455665   13.27115157727483    5.95450262062823
H         0.65227463131096   14.14423495749886    5.37202533680298
C         1.08922316789443   12.04922861528259    5.32168876088374
C         1.41820550819193   10.93355954422062    6.08537431135710
H         1.55113140681537    9.98694878250743    5.57329106649948
C         1.57545098857732   11.01117641804421    7.46252781248224
C         0.95263700941896   11.93294546121000    3.83244790806421
H         0.57181407000139   10.95268607649084    3.55280538339688
H         1.92586685798190   12.06362045126082    3.35706466107827
H         0.28238769410005   12.69611438055836    3.44317976565409
C         3.98061581655233    8.44120627620344    7.05149593181160
H         4.55101429341404    9.30047457881515    7.39007189885183
C         4.53851063757685    7.50849198258156    6.20299264103863
H         5.55726551162006    7.63229867764268    5.86983872692697
C         3.78849250717012    6.41171222077275    5.78442198603103
C         2.48313036987858    6.32387586951056    6.26203378812954
H         1.85112734937402    5.49685360005777    5.97783991238551
C         1.99521406316539    7.29396379622313    7.11162363866393
H         0.98549177794370    7.23486203893169    7.50564928365993
C         4.36825058080486    5.36753792092396    4.88986697203709
H         4.90684593076510    4.63242249645569    5.48871693901406
H         5.07244317121726    5.80662777721516    4.18704208675738
H         3.58760140622170    4.84809168653852    4.33998596392147

