107
CSD_code = CODYAY | q = 0 | S = 0 | Stoichiometry = C40H56Cl2N4O4Pd | MND = 4
Pd        6.12692073950284    5.60472230033654    6.98702917794882
Cl        4.46703688533860    4.28691724864008    6.04279111907811
O        13.44289188534876    6.04396018938613    3.99987765203409
O        13.03693283426178    8.03984852222722    4.93557890803205
N         6.12765387536587    6.79154029436463    4.29265184184806
N         5.65924757150586    6.96715010142256    5.53870774998680
C         5.65469747086200    7.74387547093764    3.45604133218479
C         4.83357237624255    8.54678080653313    4.22361331955059
H         4.28136921425131    9.39963645449157    3.89536566639385
C        11.19631871358456    6.64843388608687    4.34174631190105
C        10.24834405671875    7.49208956302083    4.91336439069245
H        10.58521152636494    8.36919025428533    5.44378333771505
C        12.62763138323429    7.00513538134784    4.46910362374587
C         4.85272301036674    8.02546314324846    5.52107284075431
C         7.02240853732092    5.69838689173893    4.01615788434702
H         6.78571058890599    4.89918330329148    4.74723163286710
H         6.80845210344474    5.29624315122583    3.02408668255246
C         8.48354240377419    6.06489458340464    4.13085826043320
C         9.43354689846681    5.22252587252060    3.55895207854426
H         9.10858898237763    4.33645161682988    3.03146164541898
C        10.77954882781223    5.50651720079167    3.66138954750420
H        11.51328148154782    4.85349180604833    3.21608783060330
C         8.90162347917530    7.20387913877433    4.80834568911939
H         8.18246123136915    7.86518463716845    5.26790891030148
C         4.06857713504343    8.53029347787975    6.70618240059195
C         5.92545586121349    7.86525317705548    1.97741632148302
C         7.42736814630689    7.85387106622150    1.66293062612625
H         7.95531252922170    8.56029949533968    2.29962151512117
H         7.87436156557302    6.87481021876795    1.79658683851051
H         7.58078835156406    8.14913959289921    0.62733514764185
C         5.35650487928763    9.20198273764308    1.48179740045424
H         4.27868954523538    9.24020162237908    1.61346471092410
H         5.80895687271533   10.03401698021488    2.01527272778722
H         5.56948703858979    9.31923173984257    0.42194124763095
C         5.20442296726116    6.73806242358565    1.22287780201055
H         5.59133307264724    5.75570449421272    1.47855156672772
H         4.14187539462750    6.75180445408875    1.45468898859469
H         5.32640296407956    6.87872137210820    0.15144641835507
C         3.23750245519834    7.37602483294639    7.27824170404753
H         2.51480848721022    7.02764793668683    6.54280963120119
H         3.88301852458284    6.53019674730926    7.54070766701171
H         2.69909176609059    7.69776141633725    8.16680060251927
C         3.11961423924282    9.65559994746140    6.28192894578536
H         3.67219841521829   10.51179791422726    5.90265991792400
H         2.42719698774581    9.31306172992568    5.51658257186121
H         2.54101211675053    9.98093792448311    7.14341701368089
C         5.03105324853373    9.06796510013913    7.77089932191372
H         5.77588660089890    8.31789128693669    8.03290284922056
H         5.55803710312428    9.94330426665601    7.39682120549586
H         4.48051945312988    9.35274236303550    8.66475181528581
C        14.83139706617828    6.31923248418102    4.08956917548821
H        15.08215631129973    7.20388238138940    3.50009913675985
H        15.11625469352153    6.50008576610806    5.12823021616518
H        15.34223437466381    5.44253037117779    3.69953528800860
Cl        7.78686684626045    6.92246938782408    7.93111657499159
O        -1.18907296410512    5.16570888362221    9.97417785518132
O        -0.78322216543758    3.16976737998501    9.03853729522817
N         6.12613023606333    4.41788754113615    9.68131441378634
N         6.59449857012717    4.24218067817107    8.43526034487205
C         6.59911283414325    3.46561848146177   10.51798239699971
C         7.42022852794179    2.66266450189525    9.75045084419041
H         7.97244720357123    1.80983957270234   10.07875035719424
C         1.05746332602737    4.56111251939277    9.63232559427416
C         2.00539820409876    3.71745155117333    9.06064828637767
H         1.66849277615704    2.84036213158540    8.53023508565326
C        -0.37386486613717    4.20445353127788    9.50502404676873
C         7.40104796627806    3.18388955013669    8.45295435953131
C         5.23139955773987    5.51107397919340    9.95775367524796
H         5.46807330696511    6.31020426190404    9.22659078707174
H         5.44540116291379    5.91330354090566   10.94977978048422
C         3.77025895569432    5.14457284636431    9.84315168246457
C         2.82029503563927    5.98694702854014   10.41511725522227
H         3.14529021542458    6.87299988638334   10.94262095635381
C         1.47428279058194    5.70299477351190   10.31270985044151
H         0.74058118175083    6.35601458809640   10.75807105541666
C         3.35213009810827    4.00561635790798    9.16564771280997
H         4.07126503899759    3.34431583858543    8.70603324170445
C         8.18519523191103    2.67899809895808    7.26787285337399
C         6.32840109928323    3.34436507158532   11.99662562444413
C         4.82650092389628    3.35575168008600   12.31116466656168
H         4.29855587460980    2.64923553210079   11.67457226590323
H         4.37948232043972    4.33478497344387   12.17739714903994
H         4.67311369578104    3.06060662672922   13.34680128232751
C         6.89738154997923    2.00768718563329   12.49234726706373
H         7.97519093086569    1.96946733984451   12.36063569988992
H         6.44491570658857    1.17560188741595   11.95896396575121
H         6.68444631016856    1.89052909973270   13.55222347716786
C         7.04944135863930    4.47162467067139   12.75105544113307
H         6.66248290248515    5.45395381057625   12.49534801591645
H         8.11197334495785    4.45790572370171   12.51917433014514
H         6.92753793176715    4.33103083990609   13.82250451246687
C         9.01621657659827    3.83324425828666    6.69569159664541
H         9.73890658864323    4.18172947811956    7.43107693541188
H         8.37066080505845    4.67901751932748    6.43314667680200
H         9.55462874646703    3.51143975613850    5.80715833040319
C         9.13421466947112    1.55377413083174    7.69221834220753
H         8.58166569703104    0.69758755269646    8.07156278171483
H         9.82663297456996    1.89639989555705    8.45752708001709
H         9.71281184167061    1.22838497846510    6.83074704145846
C         7.22270698634626    2.14121738617340    6.20322401090506
H         6.47790492864934    2.89128389368294    5.94110243573197
H         6.69569615526428    1.26594788935798    6.57742692532925
H         7.77324749180273    1.85629321539775    5.30942229113188
C        -2.57759622661099    4.89053884678956    9.88446138842776
H        -2.82849123610682    4.00613155355236   10.47423864587794
H        -2.86238086502458    4.70932965459212    8.84584285941641
H        -3.08838239721052    5.76743149990820   10.27413444666884

