35
CSD_code = CODYUQ | q = 0 | S = 0 | Stoichiometry = C14H16FIN2Pt | MND = 4
Pt        2.00726135227441    9.61721449456956    8.12805487640823
I         2.52621910974342    8.02556096365157   10.15609816543125
F         1.05622448449494   11.89786796651087    3.26165548411532
N         1.13796720255221   11.04410554320214    9.36494729962394
H         0.12087021884212   10.92339237888641    9.32693967836068
H         1.42168757299821   10.96148736448248   10.34578153955936
N         2.75380762055379    8.36306601734599    6.85660620076705
C         2.98866650688130   12.59787234883554    9.17003496172428
H         3.12081146532952   12.70951563098591   10.24482133831351
H         3.35977186537754   13.49081078142806    8.67516084185168
H         3.57392277435354   11.73794701875716    8.82605308130617
C         1.51932893350667   12.36202503829002    8.81786552276001
H         0.90148920331274   13.16477633763298    9.24685283527124
C         1.35215573334213   12.28083710067900    7.31791514423914
C         1.02210275165002   13.38441975391863    6.55024915473868
H         0.84450487805641   14.34101536920921    7.02161149239915
C         0.91921027672358   13.26576559738529    5.17477679385176
H         0.66409467404939   14.10740602346826    4.55105877305965
C         1.15177524547972   12.02782382694770    4.60822437221549
C         1.47794132710150   10.91328067046892    5.35974142788610
H         1.64208289626543    9.97636020818042    4.84458133129798
C         1.58764850651487   11.02175687426684    6.74112455383140
C         1.99950056321114    7.36296807903933    6.39113974289309
H         0.96761689678894    7.33866636463676    6.72744786243515
C         2.49214943400133    6.39704942861183    5.54011213937523
H         1.84294551288497    5.60703450704770    5.19602949275300
C         3.82502434053107    6.44172036511939    5.13594597206165
C         4.59800144625191    7.48810715049070    5.63245461758946
H         5.63896864875572    7.57489535886354    5.36268246898368
C         4.03384630284228    8.41920056255303    6.47980616554400
H         4.62283806305948    9.23726095802858    6.88282679181545
C         4.38734631743169    5.42569369696787    4.19955020553050
H         4.16442914074658    5.71177890959698    3.17102236656143
H         3.94371807243228    4.44912227261219    4.37805366430219
H         5.46667066165819    5.35439503732846    4.30487364114263

