78
CSD_code = CODZUR | q = 0 | S = 0 | Stoichiometry = C39H31N2O4PRu | MND = 9
Ru        7.03367786779750    6.04400820697545    7.63199607849416
P         8.91468180033512    5.49158609032548    8.87949533229639
C         8.98548673610743    4.09795461523490   10.06003481344576
C         8.52633302061965    2.84746953554729    9.65164449862929
C         8.55312056870924    1.77219575664346   10.51983385360893
C         9.04115175464315    1.92795373562682   11.80589588523070
C         9.52730097305908    3.15958239040019   12.20908467202594
C         9.50431697154116    4.23907299554184   11.34478230834251
C         9.36967394082193    6.90118817472251    9.94275811465229
C         8.54797464022613    7.18021248719839   11.03604390220948
C         8.82344174878800    8.26348245548271   11.84879136599980
C         9.90864907681377    9.08254733576247   11.57363690429900
C        10.72148904287316    8.81123225636911   10.48645667866497
C        10.45642041972669    7.72371317087524    9.67040732387644
C        10.42142713473512    5.25046925627279    7.88350206194985
C        11.48683971570011    4.47074399176389    8.31695946801912
C        12.60376229681273    4.32907037860575    7.51339173394462
C        12.66559055494477    4.96152087646022    6.28286791656002
C        11.60746873388022    5.74453396342706    5.85027008927704
C        10.48855832721483    5.88611899296476    6.64723469282288
C         7.29163150590902    4.98546832600356    4.79031719100962
O         6.37249743410189    5.63369807287668    4.34051732599661
O         8.40908641982414    4.71787264780049    4.08888674675387
C         8.46185551791852    5.25537893082837    2.77834520454814
C         7.35919455458860    4.42788432986616    6.16126567236331
C         8.40701517466805    3.50225735835300    6.35809140536341
N         9.23085257149239    2.70525465985098    6.45583614694513
C         6.09271221828922    4.27221044378605    6.88624577899346
C         4.80633644640973    4.04045794346976    6.22143804929101
C         4.75688148352276    3.24744958275785    5.07548987818776
C         3.54327512831657    2.94686704040724    4.48827281002692
C         2.36362524941553    3.42445081204396    5.03476979847805
C         2.40232480512261    4.19781932449128    6.18354864625152
C         3.61216788151539    4.49952792252211    6.77699807592214
C         6.20831614792742    4.34234390782109    8.28642916254659
C         5.67257577771316    3.73124468985781    9.36537689503965
C         5.79474400490744    4.37538282788892   10.61222816313189
N         5.93206166031414    4.95587670668012   11.59356936020114
C         5.04909480223639    2.39473476209437    9.31092390096428
O         4.44399914139697    1.87107561598027   10.21229220634732
O         5.24638313304756    1.82085523834400    8.10839723383673
C         4.65247531399497    0.54832944095140    7.92149307060815
C         5.40127340415933    7.54409318740904    8.02233261889298
C         6.58739163614471    8.00739882040503    8.62017860914606
C         7.55118138262130    8.22628014187233    7.57063157752771
C         6.93337923286692    7.91129723557710    6.34509287601715
C         5.62406745879351    7.44300976156696    6.62018605063331
H         8.15798120797523    2.71194276639362    8.64583092692415
H         8.18672153584157    0.81174985792444   10.18950468411319
H         9.04811425685138    1.09170797008371   12.48862583766503
H         9.92530328620243    3.28476328469249   13.20518356806286
H         9.89317927416920    5.18992246243354   11.67646998747310
H         7.70336514052345    6.53461020851907   11.24434838977606
H         8.18931605970797    8.47063668778786   12.69799505155604
H        10.11996643950807    9.93088796736491   12.20749583687294
H        11.56803407071763    9.44707429400075   10.27150980064721
H        11.09645478670407    7.51199864310110    8.82487975402079
H        11.43377642878433    3.97002130483134    9.27279050842910
H        13.42739530543147    3.71514654098409    7.84638860058488
H        13.53662511968166    4.83912061469136    5.65640483550015
H        11.65277827319907    6.23495645189905    4.88893192389402
H         9.64649433197525    6.48528206175788    6.31583732808961
H         9.38598266189113    4.88801882692810    2.34000077003106
H         8.46151152657287    6.34738373221877    2.81243265546814
H         7.60018983532915    4.92416849861784    2.19440933583240
H         5.67293607292184    2.85096470982808    4.66058000732393
H         3.51701289925502    2.33185638143632    3.60058149903585
H         1.41685025398250    3.18964071768157    4.57155288323522
H         1.48532866106803    4.56536895186086    6.62069201306974
H         3.63956728538946    5.09964230658630    7.67690682329650
H         5.09494099540827    0.13639228173070    7.01796359890108
H         3.57139262850722    0.65116519008170    7.80122542932105
H         4.85325429374961   -0.09538098726678    8.78066686397755
H         4.46037361610528    7.38720110678894    8.53064596098099
H         6.70221759349349    8.32381597044671    9.64743378994871
H         8.49678133441044    8.74094756354347    7.69902833220716
H         7.34367341200208    8.07172461627485    5.35843034340886
H         4.87771660006661    7.21399261906705    5.87221051096679

