76
CSD_code = CODZEB | q = 0 | S = 0 | Stoichiometry = C38H31N2OPRuS2 | MND = 8
Ru        8.76350521091137    5.39639001046236    2.53650821628972
C         7.84700201453466    5.88404655477434    1.03030319646876
O         7.32184338074870    6.27538547043148    0.07982671975514
P         7.46448697142564    6.74567423725771    3.86333056548271
C         7.19487672959394    8.42489989199172    3.19988763301184
C         7.98945903261692    8.89959648937456    2.16411735721623
C         7.80211874555971   10.17910298003012    1.67064556883667
C         6.82090098824758   10.99221610498247    2.21189000308576
C         6.02931342214766   10.52685677770362    3.25108619379470
C         6.21391415843010    9.25036446353122    3.74677927526218
C         8.14768573578055    7.11011876721984    5.51506124379907
C         8.58310041339442    8.38476196719251    5.86461862744792
C         9.14114830865095    8.61026291132509    7.11106135369391
C         9.27443984718205    7.57129071222368    8.01631719364005
C         8.85944089694267    6.29608530716596    7.66680429113752
C         8.30811219007045    6.06211021305209    6.42075579443042
C         5.72859912077335    6.28263812750668    4.18353184217698
C         5.21047818920551    5.87357597040515    5.40498013073336
C         3.87208540708534    5.52923449444276    5.50385184284953
C         3.04629689965363    5.59618367691592    4.39485096212265
C         3.55843956352649    6.00928131992209    3.17386600037572
C         4.89438996589682    6.34438474660448    3.06747541297610
C         7.48533885518214    3.77666661929692    2.77258299591389
S         7.43945655888839    3.23195020892937    4.46763332810130
C         7.75464094048020    1.44107544909938    4.34010883875667
C         6.73834703249727    3.08272234971473    1.87580560116880
C         5.64427066927821    2.14784883501149    2.20851511819849
C         4.69934046272992    2.47428201973229    3.18037343055167
C         3.65726659641418    1.61163766134746    3.45807025334011
C         3.53668007512734    0.41524104714990    2.76868669046609
C         4.46626853926456    0.08697392999256    1.79625878235175
C         5.51214561301122    0.94653386960519    1.51442784593470
C         7.04670634188427    3.18201529531416    0.45076904342119
S         5.84456019943890    3.55357877788274   -0.74834618545312
C         4.47771850965462    4.20719193360305    0.24618265979064
C         8.31099887622621    2.84802032667190    0.02030237366460
C         9.17535731441389    2.16263381901786    0.89112265068241
N         9.83807362603819    1.50806839488914    1.56643320779816
C         8.76510996803405    3.00874391047243   -1.30056655753053
N         9.18009220668607    3.15131149518690   -2.36158229421316
C        10.77131372412705    4.73229505047862    1.75618749463970
C        10.83315923898254    6.14702941353894    1.93041511428601
C        10.63135592702462    6.42429029844199    3.29298731115085
C        10.47736398457224    5.17913384750895    3.98350528403367
C        10.60953844504118    4.14660288041966    3.04058828460346
H         8.75194315035268    8.25494107510605    1.74212833127603
H         8.41967843181846   10.53996828925028    0.86164497695121
H         6.67124799069939   11.98911574532458    1.82499994282885
H         5.26587652940255   11.16225476306494    3.67534285220524
H         5.60063004737709    8.88536287387781    4.55964519715976
H         8.49052371028998    9.20278426684866    5.16442823068906
H         9.47599251272437    9.60321801436534    7.37350937708753
H         9.70965960604610    7.75237745120130    8.98783857871127
H         8.97349894529644    5.47895102875022    8.36413429300333
H         8.01264799302567    5.06243569114895    6.13370026841686
H         5.84247383376322    5.82845632097295    6.27853655044414
H         3.47398882160217    5.20843828463039    6.45518814694557
H         2.00390039599540    5.32766216212931    4.47846805053379
H         2.91451879709765    6.06635693237980    2.30861339848037
H         5.31368986551029    6.67831041471063    2.12454902972190
H         8.22011458082368    1.15071570559497    5.27642972601210
H         8.43035730956950    1.26537777621753    3.50869335204067
H         6.82066201726903    0.90567827610687    4.20127928002960
H         4.78445624549973    3.41007640995867    3.71193648652404
H         2.93249579896075    1.87908016263048    4.21315173659873
H         2.72057714440014   -0.25727163554917    2.98751383395855
H         4.37852854504136   -0.84298589065514    1.25415425800469
H         6.24028934741203    0.67935574881383    0.76153322969933
H         3.97333084137009    4.94504831975916   -0.37010034881134
H         4.88856931756474    4.66843101285215    1.13793339181781
H         3.79506633167408    3.40411952112784    0.50925455126885
H        11.05292893678670    4.20376442767279    0.85483078271492
H        11.10125766355817    6.86116076655170    1.16187041642904
H        10.73678953154941    7.39175762823932    3.76954135521114
H        10.49437337243563    5.06021061850743    5.05879508634008
H        10.66199148771709    3.08803921058477    3.25434494146409

