42
CSD_code = CODZIF | q = 0 | S = 0 | Stoichiometry = C20H16N2ORuS2 | MND = 8
Ru        7.80038703824519    5.77066983338847    8.67108285137559
C         7.87729504894977    6.04135356546109    6.85737178519009
O         7.91692051297496    6.18233251664443    5.71369927468081
C         8.18126262086168    7.76333331532064    9.00558102818557
S         9.71128780000072    8.57847759891614    8.90026186791774
C        10.80505579012119    7.39152151462538    8.06474784373141
C         7.18158420492602    8.54682922050633    9.55498524899981
C         7.45922084944130    9.92816990419625   10.03259522362946
C         7.20102779775749   11.01439097299582    9.20552527285225
C         7.45411379539918   12.29781834648276    9.65105104268457
C         7.96524132935087   12.50335813536771   10.92074416252155
C         8.23368308731034   11.42287730045573   11.74297311205209
C         7.98574510923530   10.13733890282260   11.30088053135473
C         5.85872656217194    8.08060011600784    9.63059773539901
S         5.55373541264864    6.46010913742405    8.88864857944640
C         4.88341981712456    7.03375504073254    7.29732076101344
C         4.76778894356875    8.70895936473802   10.19022913117088
C         4.80137036920489    9.94985973359439   10.85148392630386
N         4.72022693236608   10.94456915276130   11.42090067186803
C         3.49416623660461    8.11686661379005   10.13231933191985
N         2.45645453044034    7.62838443581194   10.05810128272100
C         7.82308883724974    4.85896885321452   10.69385634933410
C         7.34454929140580    3.87567744888518    9.77301762152788
C         8.37363175783815    3.58350930580741    8.86355103616063
C         9.50470334713424    4.39121546309808    9.20443917990419
C         9.16384433831403    5.13943211047420   10.36556207102863
H        11.53687230823425    7.98029880084297    7.52030851084604
H        11.30649844185595    6.77659206637907    8.80616573623257
H        10.21903767292973    6.78094139510868    7.37996599987971
H         6.79739919418935   10.84842270518845    8.21647353488948
H         7.24490525783395   13.13931638757312    9.00768430099037
H         8.15252871873564   13.50731927883154   11.27077194780307
H         8.63157833250080   11.58157450178807   12.73412379472714
H         8.18710920480352    9.29015114972829   11.94090021215351
H         4.80172573533010    6.16301819252068    6.65347138948958
H         3.89916412642684    7.45915940721856    7.47879258483870
H         5.55868531375078    7.76794649651718    6.86418058247585
H         7.32059122340556    5.15592711469117   11.60499572221529
H         6.39513482267413    3.36186187858211    9.84636227692577
H         8.36812471555197    2.79652214810731    8.12175502650594
H        10.50081323581561    4.26913519891701    8.79815673233959
H         9.84470033525326    5.74673537448993   10.94796472471804

