71
CSD_code = CODZON | q = 0 | S = 0 | Stoichiometry = C21H44IrN3Si2 | MND = 6
Ir        3.52796925472458    1.94457538374915   -0.00000218198023
Si        5.08550325145926   -2.73773442131990    0.21037972939852
N         3.37401266439869    0.18273666645758    1.08956503836419
N         3.52796482099076   -1.95675803047745    0.00000824260591
C         2.59093157957234    3.44887161650781    1.16629795863125
H         1.86355726865227    2.99558679163045    1.83629479950170
C         3.94827366085332    3.34086513252349    1.52740315047692
H         4.17233207211585    2.84958430460941    2.47233514158279
C         4.99923771888174    4.35863524529944    1.13359716304528
H         5.97314603715216    3.96836330105710    1.43336044459394
H         4.83894120128960    5.29034686045830    1.68624881258704
C         5.01019347230325    4.62965526003986   -0.38265739450066
H         4.41985245009850    5.51654976908174   -0.61476041115853
H         6.03405320054599    4.83088299240461   -0.70124216654583
C         3.52784368225894   -0.54327498106423   -0.00001249266775
C         2.02682740434696    0.20827649084480    3.12761142499884
H         1.85139877083180   -0.31720827076015    4.06389181783382
H         2.21459272002358    1.25638485223731    3.34556291965835
H         1.13509720859197    0.13655716776661    2.51113794294929
C         3.22698989071528   -0.40110731239823    2.39825032986672
H         3.05369436541841   -1.48061188792067    2.28248551458599
C         4.49992962337886   -0.19769774465446    3.22974807354981
H         4.39751280687422   -0.68144419217945    4.19915362450626
H         5.35960282063856   -0.61590197845049    2.71333160479688
H         4.67727697796686    0.86329460465521    3.38701892378648
C         6.46177164814747   -1.42131697767917    0.09511872471002
H         7.26185097110737   -1.62496790658438    0.80104166987163
H         6.90349001261446   -1.40307310896947   -0.89677966350372
H         6.08071998566955   -0.42595174859592    0.30083294651596
C         5.20786377954940   -3.64634286725697    1.88631602234144
H         6.21203591679400   -4.03698544385971    2.02223465091595
H         4.98860148075178   -3.00547819794713    2.73328481643851
H         4.52632152729060   -4.48897591207317    1.92871286613896
C         5.35496266554809   -4.04520808882591   -1.15152128854536
H         6.37555315225014   -4.41246821041227   -1.11378045181091
H         4.69994486475446   -4.89861457764941   -1.01244150059419
H         5.18391259658829   -3.65430564353943   -2.14923496695903
Si        1.97058730542202   -2.73805195757023   -0.21036280793346
N         3.68156635378598    0.18273124744035   -1.08960853707301
C         5.02857349353010    0.20828477127145   -3.12779901456010
H         5.20390993308810   -0.31721749331725   -4.06408706344525
H         4.84075459127302    1.25638163532663   -3.34575729842374
H         5.92037617293483    0.13659992532813   -2.51142612281498
C         3.82850975530168   -0.40112206164381   -2.39829852769034
H         4.00185793765679   -1.48061806959885   -2.28253965428440
C         2.55547035255491   -0.19776183924561   -3.22965862029320
H         2.65780004917773   -0.68147721501645   -4.19908916727739
H         1.69587699893058   -0.61602503416065   -2.71315705439446
H         2.37805289413164    0.86322755991570   -3.38687499344618
C         0.59407020051434   -1.42190115767351   -0.09506133406918
H        -0.20595658323033   -1.62567693564252   -0.80100508021125
H         0.15232702763825   -1.40377640690469    0.89683142791048
H         0.97494386512809   -0.42646252025015   -0.30073569711166
C         1.84839951154176   -3.64667299899843   -1.88630652129474
H         0.84426876772514   -4.03738291424144   -2.02230490237083
H         2.06767745740697   -3.00579739737190   -2.73325664310944
H         2.52999512084511   -4.48926003042838   -1.92866088255365
C         1.70139683379972   -4.04560070379862    1.15152053045005
H         0.68086859206223   -4.41303767531415    1.11379944544909
H         2.35656017337615   -4.89889115263641    1.01240688964485
H         1.87240522879997   -3.65468590274979    2.14923722210490
C         4.46536938567245    3.44868027977651   -1.16627036125030
H         5.19264988736870    2.99525257462883   -1.83627282478117
C         3.10800864483562    3.34097578652520   -1.52739392633263
H         2.88384360836664    2.84974098304634   -2.47232514019527
C         2.05725830714836    4.35895843847400   -1.13356753767181
H         1.08326736751381    3.96889920780841   -1.43333818348376
H         2.21775532801918    5.29064354280449   -1.68620460046933
C         2.04635838854865    4.62996537366963    0.38269102729532
H         2.63689093219739    5.51672976952155    0.61480430691313
H         1.02254259178477    4.83140943432107    0.70127981078730

