50
CSD_code = COFDOT | q = 1 | S = 0 | Stoichiometry = C17H24N5O3Zn(1+) | MND = 6
C         1.12979627913408    3.35886902449331    1.47152855766711
H         0.80897696419623    3.98784824006629    2.28950200653002
C         1.38310155745570    3.89574553102761    0.22529798470112
H         1.26547454066892    4.95350860128822    0.05803536196992
C         1.77621061612011    3.04249870605209   -0.79550355768460
H         1.97657544454738    3.41983042850644   -1.78608194260918
C         1.90359480724416    1.69429386829517   -0.51485185282111
H         2.20740269959095    0.99989895039742   -1.28191052952372
C         1.62403917058822    1.22748554416577    0.76543649794732
C         1.72425255761707   -0.23246144778469    1.08707713938997
H         2.21823451429057   -0.74706133151330    0.26368443823205
H         0.70620847230119   -0.62122346316847    1.16936392604380
C         2.47039896544413   -0.50924608680676    2.39501580959054
H         2.93900609052450   -1.49948916705287    2.34581209315338
H         3.26542148242244    0.22899217984796    2.52373960150932
C         0.84886183086700   -1.72059803754622    3.72879914978312
H         1.50856120181097   -2.43525660265560    4.23526579061624
H         0.61538639965751   -2.12219541083807    2.74254038065813
C        -0.46366379823858   -1.59539513547731    4.49896554352338
H        -1.22618796229660   -1.17716719447531    3.84227417526283
H        -0.78146159647765   -2.60030834796712    4.77705195358063
C        -0.35581438964200   -0.72991310370672    5.74892747457215
H         0.61592408679442   -0.87558300074326    6.22916797464317
H        -1.12848878798098   -1.01971857733170    6.47205575111096
C        -0.30624004435686    1.55031773564070    6.57903347061177
H         0.63783694038694    1.27166569295196    7.05693254310961
H        -1.11088808876584    1.38789481816938    7.30684275096328
C        -0.25908281064895    3.02944665626250    6.18994730836289
H        -1.00483398757984    3.22544410510267    5.41709191215704
H        -0.50114391119994    3.64033934375180    7.05867287452195
C         1.09229923618566    3.41505093495118    5.67583668142682
C         1.79431189590742    4.46804794967520    6.25802762359763
H         1.34364385843034    5.02834961072650    7.06165964480621
C         3.05832569159518    4.79000704076139    5.80130692632838
H         3.61126058780228    5.60769178040506    6.23644154164239
C         3.60125615261767    4.02826747709550    4.77604777931080
H         4.58777970496805    4.22783465186002    4.39128324898333
C         2.84176574141325    3.00414336916505    4.24863890036819
H         3.22923113388685    2.39778606551252    3.44301586536767
N         1.24198766557810    2.05609056074281    1.74168979659308
N         1.56435647195333   -0.43920773534856    3.55237729799144
H         2.14301642575636   -0.31909629484972    4.38040017294372
N        -0.49781760938441    0.69262347577248    5.40411199103911
H        -1.47025488935253    0.81669292171582    5.11967843814792
N         1.61357897251419    2.70302000545515    4.67241768550795
N        -1.64275395650479    1.79210498257549    2.41282798555385
O        -1.11024902822220    0.66541726118215    2.38862620943175
O        -1.15591081389500    2.60938944397206    3.22455545475499
O        -2.56646487058600    2.07055793537672    1.71784535418559
Zn        0.42897838485937    1.36306604430133    3.55619681444636

