78
CSD_code = COFDUX | q = 1 | S = 0 | Stoichiometry = C31H38I2N6Rh(1+) | MND = 6
C        10.52408863500026    5.81901339993259    7.14835782654907
C         9.75733904597234    4.91434602108177    7.83601931727796
H         9.26863227201389    4.02807299878783    7.48297514392764
C        10.40524034117514    6.39474836155461    9.31315578130904
C        11.72460689850598    7.89217242252679    7.85569783884881
H        12.05977738649589    8.31346314327462    8.80889236622582
H        11.12671203864267    8.63682956149365    7.30594949813409
C        14.14380129294351    7.88622285455109    7.32154195793973
C        14.10700329352260    6.66467693599441    5.50324927126891
H        14.51718180623552    6.14878327655696    4.65809171685741
C        12.80486343105577    6.75161535001830    5.92179852579163
C         8.88678593459595    4.62434173224112   10.15251740639565
H         9.38286075952802    4.69196494590575   11.12247288521259
H         8.79170578831095    3.57155771045169    9.87813071253191
C         7.50483410420557    5.27779872830865   10.23567447387219
H         7.02081746036697    5.22980942074434    9.25765750424445
H         7.62324948272290    6.33144380824439   10.50053365925328
C         6.62634469743121    4.58753477965555   11.27622337875610
H         6.50979610438762    3.53474513268249   11.01174427493297
H         7.11750929149575    4.63384797061493   12.25031318442733
C         5.25445469305550    5.24313053821631   11.36777616542189
H         5.34750199197286    6.28847574999106   11.65252871876664
H         4.64419691208294    4.73877576373742   12.11151289728862
H         4.73990947294514    5.19228941990590   10.41120164679838
C        10.61635338058146    7.13741320845264   10.55439984358758
C        10.20604789098910    8.46669297395752   10.64925157336592
H         9.70514692073531    8.93436523771764    9.81417018307879
C        10.41503021609680    9.17231189893405   11.82005688660411
H        10.08790648065664   10.19789921678531   11.89029885946978
C        11.03596826585500    8.56335699844826   12.89838479422447
H        11.19545838036244    9.11562270041211   13.81111043153758
C        11.45115820894997    7.24468772847015   12.80596535106453
H        11.93891245679334    6.77023454297068   13.64321805650666
C        11.24497363005760    6.53024308400451   11.64015763306709
H        11.58998640647758    5.50957856010388   11.56076169296591
C        14.57473053180851    8.72882844609088    8.43268783158978
C        15.56757181571381    8.29561536362117    9.31079157805221
H        16.01211813114176    7.32083499116482    9.18220040429436
C        15.96365357618269    9.10234170743542   10.36145365342178
H        16.73325392194162    8.76006799072265   11.03568747042947
C        15.37593644287188   10.34279160395637   10.54856170005664
H        15.68942731872497   10.97033529238139   11.36792834451618
C        14.38918578502560   10.77932254469298    9.67932766341146
H        13.93545688573476   11.74840001459134    9.81638394879286
C        13.98686423334566    9.98017450606628    8.62545622448930
H        13.24011423716109   10.33606394405133    7.93105739973182
C        16.34254685999633    7.46304579336958    6.23746528788636
H        16.68727590834437    8.25688053074157    6.90214163194822
H        16.57637834038843    7.74093035253142    5.20578547065158
C        17.02560769061974    6.13440374633839    6.57649260918842
H        16.66982461822176    5.36689784303834    5.88669410408607
H        16.74232068938942    5.82301294232902    7.58423505010372
C        18.54823380143591    6.23125241692261    6.48508896506120
H        18.95606837008165    5.22175993536187    6.55301181578024
H        18.82855803448637    6.63529075362259    5.51054477596036
C        19.16365110940612    7.08372083682711    7.58888696554212
H        18.85527611850890    8.12380286671795    7.51334872470159
H        20.24731845049068    7.05228250524091    7.51914698410620
H        18.87749479536044    6.70638903405740    8.56818741385103
C         8.63530280212744    4.36878697693704    4.13491940589557
C         7.49958295794135    3.73504131743741    3.55312446805773
H         7.80810679130113    3.16177149197938    2.67866712247023
H         6.77354702948736    4.49106777727028    3.25244712925891
H         7.04152100024460    3.06108974080280    4.27716645710660
C        12.10076234180531    5.83215052049938    2.27255846167266
C        12.45699225283766    5.83752724670776    0.89309698146196
H        13.46418955385948    6.23714345979236    0.77430749768124
H        11.75642155117031    6.46219804920502    0.33807252698190
H        12.42610860711437    4.82037647916553    0.50170581246865
N         9.70115744835188    5.27389473127601    9.15377186728224
N        10.90489797595881    6.73517997837431    8.10990240620026
N        12.86914907257773    7.53234739873090    7.05971302727040
N        14.90936055210542    7.35810736128630    6.36521643321693
N         9.54443724055792    4.88142490645446    4.61256254194074
N        11.82103613005403    5.82987028004955    3.38576486590907
Rh       11.15784241460890    5.82649044680479    5.24405811883714
I         9.91943909868074    8.18896239287153    4.77786349612520
I        12.38852214059831    3.47255730571954    5.71432390499987

