70
CSD_code = COFJOZ | q = 0 | S = 0 | Stoichiometry = C38H26IrN5 | MND = 6
Ir        0.11379087195419    3.09527745108846    3.52660216465142
N        -0.95862562385633    1.78841358990914    2.42974313740858
N         1.11020318464209    4.40851241566577    4.65553844370951
N         3.75518496471173    1.34819149970606    2.38323100067049
N         1.88637366708632    1.93970127557271    3.53599357403403
N         1.11372154729412    3.66440968466725    1.53143780888586
C        -1.64911067993945    4.09081744803226    3.44876441836467
C        -2.01374150498117    5.29557794131320    4.05095116741630
H        -1.29441861310895    5.83222701879324    4.65639489146345
C        -3.27749332966649    5.83573934116252    3.89007527354744
H        -3.52769423859873    6.77272445802916    4.36786630040941
C        -4.22807724005119    5.18024884184328    3.12064618629473
H        -5.21357931697885    5.60512886609632    2.99767695312811
C        -3.91148256837428    3.98016019093401    2.51967958663091
H        -4.65957298053734    3.47068880401060    1.93011165240910
C        -2.63868793765526    3.43222014556543    2.68201377562895
C        -2.21836374611710    2.16843578475355    2.09874298588352
C        -3.00559761762386    1.37022373012344    1.26797073341725
H        -4.00131654673589    1.68973261073970    1.00721343017778
C        -2.51078579210615    0.17754158729910    0.78155738137642
H        -3.11223374886437   -0.44677468366619    0.13821857614149
C        -1.22513072168898   -0.20427528411309    1.14184330467646
H        -0.79698420393478   -1.13066306360142    0.79472283889798
C        -0.49346113984864    0.62981436429907    1.96360161790901
H         0.50678060237752    0.35167432995567    2.26472558676508
C        -0.52928021973865    2.51136536557715    5.34187662965127
C        -1.42415749828812    1.49630580328147    5.66042742921000
H        -1.91236268880031    0.93673322259397    4.87427965530816
C        -1.70642825030487    1.17823415879910    6.97832586363600
H        -2.40215583161170    0.38180240295332    7.20150983278466
C        -1.10025303712756    1.87305340474870    8.01474570003784
H        -1.32238297075630    1.61821651627454    9.04054152828399
C        -0.21126427402943    2.88902169355442    7.73150758090165
H         0.25910418295719    3.42466855986851    8.54277606763677
C         0.07766987488389    3.21282739337512    6.40561835259918
C         1.00644761765060    4.25431934417372    5.99909944919547
C         1.75272248341306    5.05093524994150    6.86689277068632
H         1.66603123186085    4.90763631341114    7.93148022864577
C         2.60407835445805    6.01285737112824    6.36215652070991
H         3.19105968168238    6.63138765356535    7.02386471782254
C         2.68852460172476    6.16838194341211    4.98449237635624
H         3.33570664286024    6.90945894110373    4.54366515572055
C         1.92702604772769    5.34691699282333    4.17770646760474
H         1.97220789177921    5.44766757386751    3.10171005263073
C         0.72152258459183    4.50545942651836    0.54263980633469
C        -0.39607818023578    5.34079488857021    0.73280303641307
H        -0.91060672866121    5.29840536468186    1.67869472667559
C        -0.81571971412339    6.18784967902801   -0.25694476988940
H        -1.67701496242200    6.81781562683747   -0.09056260532282
C        -0.13931533428406    6.24998337558936   -1.48175705911566
H        -0.48650971111678    6.92137058248049   -2.25284479929862
C         0.96359691297653    5.46625617293426   -1.69037366016312
H         1.50563917249382    5.51080281367225   -2.62445684354396
C         1.42174991345480    4.58876194672192   -0.69260766181418
C         2.57340830374352    3.78300531538207   -0.86242591923708
H         3.12019356466072    3.83337407126294   -1.79355037842918
C         2.96995740217394    2.97309207143773    0.15299381760266
H         3.84268550935060    2.34266275268958    0.10425859916873
C         2.20799989958092    2.93151637400090    1.34694570320596
C         2.63320417113143    2.06898167728427    2.40910130435279
C         3.75835164441572    0.70323305926765    3.57331274586534
C         4.68019148325825   -0.19188091843050    4.11903314179306
H         5.56709746116670   -0.46470542406034    3.56760248690229
C         4.41424687064340   -0.70217452795777    5.36544070929332
H         5.10762754368974   -1.39758232389295    5.81776483983754
C         3.25659137611884   -0.34732207226591    6.07656062373130
H         3.09380316403064   -0.78188641366788    7.05309470094652
C         2.33070535634402    0.53026789660990    5.56630920087230
H         1.43896131794380    0.79566536280139    6.11348108597784
C         2.58171985132859    1.06831496987423    4.30458799851917

