95
CSD_code = COFMUH | q = 0 | S = 0 | Stoichiometry = C38H35BF15NO2Si2Zr | MND = 13
Zr        1.60693651991680    2.31020238617060    6.92838223534100
Si        3.21257959108504    1.81851609289251    4.41110371851213
Si        1.82293163789692    4.71618698091866    5.18185488002787
F        -0.04396798465977    7.16418874111139    0.42685349093142
F        -2.29591266784997    8.32018678007261   -0.35003895386398
F        -4.69618914919864    7.61255611625218    0.76112177795041
F        -4.74287066384688    5.65914123634801    2.68988495545814
F        -2.48754805854029    4.49927685501082    3.49315780198159
F        -0.17435531078433    4.21964334007257   -0.03429261643412
F        -0.84287107426902    1.79643222051636   -0.92960412324713
F        -1.07915743889737   -0.30707026983254    0.82399461962211
F        -0.59740544639775    0.13649292024537    3.48581284917107
F         0.04019755648934    2.48031442382528    4.41437993465877
F         2.46924916536039    3.74183553916154    1.15228311222031
F         4.75232744410083    4.89291343856790    0.45324737093415
F         5.18401365829196    7.55961369766153    0.93774695765493
F         3.23132399939029    9.00769297283536    2.20795700435794
F         0.95518332605433    7.84851703976187    2.95043572108901
B         0.21032930724978    5.07548262155941    2.64764849579773
C         0.59689672167287    5.44034726381873    7.67662332737141
H         0.70160776249129    5.03980252525285    8.70001024404383
C        -0.88999278341322    5.67988197365575    7.40346461852840
H        -1.02570486306944    6.22165282028014    6.47341344065768
H        -1.30823078310408    6.27668699660800    8.21045671974617
H        -1.43906936743987    4.74542939169292    7.34811249013311
C         1.33516574516026    6.77334794201170    7.59919411250357
H         2.40346632986310    6.64136578624994    7.73644748363752
H         0.96463378183468    7.43700203453659    8.37644008429208
H         1.16433703765140    7.24160186656952    6.63511420101638
C         3.28880615405937    5.94216855910927    5.10577658263974
H         3.93936099416834    5.86244745809830    5.97053599287531
H         2.97151449581861    6.97426983589569    5.01904589754454
H         3.88445139586929    5.71136463501233    4.22961710141270
C         0.25846336461277    5.27827542484973    4.26958728970760
H        -0.59796048333269    4.78030140737164    4.71705938524379
H         0.11926210390093    6.34128506666739    4.46179052863202
C        -1.13531277142879    5.82464760604670    2.06037924863183
C        -1.16687189722401    6.78473742770897    1.05269521312449
C        -2.34053297038832    7.39264380857851    0.61361129655953
C        -3.56088094621930    7.03453907126269    1.16885455363780
C        -3.57938939827552    6.05077214938038    2.14816981165080
C        -2.38643792447275    5.47247208655034    2.56061155539785
C        -0.03194278669501    3.51253970840484    2.21393322009729
C        -0.27832141162465    3.23460771966175    0.86529268433163
C        -0.62607199762515    1.98245507022201    0.37542064845929
C        -0.75314424410766    0.91505629843456    1.25714957345011
C        -0.51812504947322    1.14944893662861    2.60096747006053
C        -0.16740242585603    2.41734564640583    3.05342448791133
C         1.58201900199913    5.73760568854722    2.07206802356321
C         2.60078996405837    5.05448314319624    1.42689069936136
C         3.80344807451532    5.63726020978944    1.04145753984846
C         4.02867898729519    6.98274453631300    1.28785195886427
C         3.03517911147968    7.71176875193382    1.92947347014183
C         1.85743706794900    7.08425027904523    2.30884475083625
C         2.74255143810136    0.99785557892841    2.74977630670263
H         1.88815221706824    0.33699165770281    2.82787991673255
H         3.57406575606136    0.41382734085583    2.36605671816271
H         2.51460131837302    1.73975600495495    1.99952616677040
C         5.11077990388178    2.07296562070310    4.35287901723989
H         5.30935003552860    2.99718713962543    3.82131177327689
H         5.62132297205311    1.28314830841476    3.81275267692074
H         5.57013215071777    2.15975066319781    5.33090523245800
C         2.94500392935120   -0.64941019037320    5.83398508138536
H         2.89563978087882   -0.83312588544382    6.92151320790300
C         4.34710712341449   -1.00412137995769    5.34995985674064
H         4.40762734525385   -0.90685837195899    4.27077275433086
H         4.56931879735032   -2.03421751020659    5.61763986786910
H         5.09650734494168   -0.36208186796710    5.80122283824808
C         1.92657071926657   -1.55231596910381    5.13701446922619
H         0.91079793689593   -1.27527805417984    5.40076046728609
H         2.09201656398284   -2.58495164702536    5.43345387116584
H         2.03644876877316   -1.48465538786996    4.05917388753110
C        -0.55314932975284    2.29773365467712    8.42154134637171
H        -0.92236576154384    3.10268515915268    9.04324728206911
C        -0.81439983891221    2.12146274806149    7.04294625815826
H        -1.45798402767614    2.73480489565951    6.42423826347233
C        -0.30893245375539    0.84757665648595    6.67012347091720
H        -0.52916932420316    0.34200018209015    5.74238126198148
C         0.25574065597221    0.25380787003119    7.82224313025260
H         0.60035146511725   -0.76902245440606    7.90440336983051
C         0.07624487936721    1.13743191306263    8.89768891412998
H         0.30434301528072    0.92431314285125    9.93142684567690
C         4.01179260314739    1.75420323264059    7.83181520522037
H         4.68305050369757    1.01200384980749    7.42653668318048
C         4.11411131239907    3.14131786671457    7.64214419155832
H         4.82918020510533    3.64632572345920    7.01224399866515
C         3.21119475748463    3.76617683863140    8.51339715076598
H         3.16188712616587    4.82678995928801    8.70813991203932
C         2.52064221181652    2.77005356885071    9.23099822099259
H         1.88857642927648    2.94521481988646   10.09325305599115
C         3.02085038650560    1.50972241954000    8.80693486756105
H         2.84414467420878    0.55899669975545    9.29696934434786
N         2.43020454880291    3.11921594452958    5.17083653861458
O         1.16586959434566    4.44402375713483    6.81291764996297
O         2.62030186317032    0.73866324247179    5.66077398985490

