50
CSD_code = COFMER | q = 0 | S = 0 | Stoichiometry = C17H29NOSiZr | MND = 12
Zr        7.47261232480555    9.76341883849278   19.42189621255989
Si        9.67065529965123   10.46947897963940   21.74529325806549
H         9.83484528766206   11.46922185540386   20.63344317871783
C        11.42255725899946    9.71278478679015   21.98216880074131
H        11.55237643240561    9.26011039447137   22.96026091426274
H        12.17951037941998   10.48499441120610   21.88728615020079
H        11.64123082069277    8.95372405930781   21.23696485069865
C         9.36791161997286   11.50818214797873   23.33675006929913
H         8.30940592159434   11.68310537964973   23.50855078569209
H         9.84971315202043   12.47769257049972   23.25876946259390
H         9.76915698861526   11.02640791995434   24.22294578785215
C         7.89671513879405    8.32508678340039   22.04194988349931
C         8.64538987218901    8.10389980971541   23.36477636100073
H         9.69129507610884    7.88700941917225   23.17410602068159
H         8.21039877252169    7.26241868693198   23.90049279888296
H         8.57514044103914    8.98531037629228   23.99306197946431
C         8.01017220621176    7.02250900972042   21.22054893580711
H         7.41308786512822    7.10892098447874   20.30852869256058
H         7.64699535971524    6.17679577727209   21.80249937966268
H         9.05345612671581    6.84221371859882   20.96165686231323
C         6.41315216269577    8.58569354380383   22.37775803322651
H         6.33238766301719    9.50609769582343   22.95600172767984
H         6.00625200284093    7.76664649156637   22.96882317955774
H         5.83581591628742    8.68010012350161   21.45271785297629
C         9.57695551536336    8.71418132375312   18.58025466394441
H        10.28701502976299    8.24194976698581   19.24633550541397
C         9.63800049188336   10.05232754854597   18.12957341938708
H        10.40816658097764   10.76754629822214   18.38635554217285
C         8.65908987091959   10.21765468213262   17.13061364513242
H         8.54391160805956   11.08819989475670   16.49698071295798
C         7.98341693399787    8.99433369090161   16.96980102984996
H         7.25582574464289    8.77302900579746   16.19918520710667
C         8.55438584759645    8.05995394924401   17.85846508845873
H         8.33707263761750    6.99845727005606   17.88811705764732
C         7.24988210445915   12.20815997088644   18.99368151618207
H         8.04687785599989   12.80374519776172   18.56211509784816
C         6.98622312743742   12.07021904770027   20.37239231436528
H         7.54682789223947   12.53199018452963   21.17216386411254
C         5.75486736903573   11.39747326846821   20.51635899559855
H         5.22207810511180   11.24626025230140   21.44583795940536
C         5.24575262490209   11.13974550683828   19.23064382266076
H         4.26660631422641   10.73304922844037   19.01325169563567
C         6.17180105363876   11.62141093077860   18.28569096738333
H         6.00712836003189   11.67777097227294   17.21497146119156
C         5.22902056249000    8.03283104115888   18.28755794373895
H         5.05030458077522    8.81480339774967   17.52801111259002
H         4.25475011166078    7.74941264459433   18.71615629804096
H         5.64019044279267    7.14372811893333   17.77946760759544
N         8.40577679489584    9.44046649523416   21.25028957811911
O         6.07893835037593    8.47117654828423   19.29077671546577

