86
CSD_code = COFNAO | q = 0 | S = 0 | Stoichiometry = C37H44MoO3Si | MND = 9
Mo        1.23746506384435    8.49578255216481    2.79880829088761
Si        2.78300195843137    6.34979287859384    5.46312105620152
O         1.98993283540390    6.86647225346271    4.11429247886654
O        -0.89988465843896    9.03125199202645    4.95539181875963
O        -1.59664063178469    7.57123208678579    2.07898549170897
C        -0.06133099868760    8.82470368989022    4.18469765802339
C        -0.50823093810337    7.85801199030486    2.35338477071117
C         1.87431339801501    6.43770927722078    2.79786324567285
H         2.87709882621091    6.20761634205563    2.39539254453657
C         0.98289596797488    5.22561031127242    2.57477128731671
H         0.02594529375590    5.39227620200446    3.08416815885616
C         1.60493967831009    3.93832420046490    3.12327512969339
H         2.59761973928258    3.78026136699793    2.70416028279155
H         0.98244137416255    3.08432382950184    2.86518987865090
H         1.68865159107610    3.98104958148195    4.20661477373813
C         0.72701247019993    5.08334076224701    1.07502142540752
H         0.28975584246548    5.99699093374014    0.68000585183362
H         0.04459025025413    4.26002909076088    0.88168337754718
H         1.66150089570862    4.88649077691588    0.55257701907647
C         3.50152710483161    7.92807591574486    6.23183200529365
C         2.65638340044660    9.00332188692652    6.49837688633369
H         1.60405014948087    8.91961965039409    6.26518382108400
C         3.13922946405691   10.16880854639227    7.06479029408044
H         2.46058171470286   10.98560110725692    7.26972941523546
C         4.48543237991409   10.30071031724586    7.38297923086391
C         5.33152778164852    9.22699544763732    7.12907827998271
H         6.38102413101180    9.30890000965419    7.37628397571283
C         4.84624114009149    8.06058346950517    6.56934706048346
H         5.52172755032986    7.23625013952548    6.38704092331255
C         5.02169721860409   11.57097714689661    7.96916945275354
H         5.51743033049890   12.15994764328848    7.19623626559106
H         5.75387388761380   11.35822065765587    8.74547722447896
H         4.22138117792616   12.17241372737780    8.39333495045195
C         4.16765449775462    5.14254798667761    4.99381019956046
C         5.13829982528342    5.50499590584561    4.06358415071586
H         5.09721560985204    6.48610835035108    3.61044379014682
C         6.15659146570331    4.64238079027096    3.70797925888461
H         6.89378583294150    4.95032168958986    2.97898144967562
C         6.24539050816386    3.37901257840899    4.27954250167024
C         5.28402555654240    3.01050793926579    5.21232601290413
H         5.33443017767267    2.03178985912882    5.66848207636884
C         4.26404786285538    3.87548130140893    5.56041802563638
H         3.52399885977870    3.56074450266083    6.28120785267284
C         7.36333785811427    2.45155937149320    3.91561725853763
H         7.65313431314952    2.58147972025693    2.87517933343533
H         7.07686310481396    1.41518009275618    4.07722689959079
H         8.23604137682607    2.66136867939982    4.53534036336252
C         1.46168399735519    5.62685450059708    6.60636577058492
C         1.79677278888587    5.08008092953363    7.84129247201984
H         2.83506303548625    5.04934744792233    8.14059288792793
C         0.82604824752829    4.58758846108939    8.69302797328131
H         1.11378436983505    4.16414007328318    9.64543833444721
C        -0.51701734509132    4.63710256742176    8.34272800925127
C        -0.86018682855157    5.19992100576522    7.11837754437563
H        -1.90092998598820    5.26121513376948    6.83411632496294
C         0.11104214560201    5.68627985822322    6.26662730409029
H        -0.17905897178937    6.13256255434370    5.32368712185399
C        -1.57820151610856    4.09714787785669    9.25135863499038
H        -2.39261426848921    4.81187769023778    9.35410649295051
H        -1.17521384897325    3.87802118860460   10.23704835796924
H        -1.99354756845211    3.17821098012436    8.83717927438276
C         1.27704343780940   10.44507684486450    1.67389405923218
C         1.82373711422678    9.43221740114313    0.81175982570325
C         3.02914429150340    8.96545523511136    1.39877993242312
C         3.25852720955705    9.70668448754135    2.59693600609663
C         2.19630670107349   10.62423483017505    2.75999942678478
C         0.18347109467880   11.40281856712332    1.29292598484633
H         0.59182182051968   12.22030308441946    0.69298125002185
H        -0.28806237180881   11.82973937258953    2.17664380977166
H        -0.58585968736809   10.89968414783058    0.70887676408222
C         1.33045151563889    9.10767616731122   -0.56565305934838
H         0.24461400050884    9.16892003049195   -0.61342598046095
H         1.62803246004473    8.10419782377596   -0.86305477814656
H         1.74484205936418    9.81574763454170   -1.28752758081963
C         4.04521302732279    8.10273736310001    0.70724822605176
H         4.64303891139144    8.71650707247785    0.02805006096060
H         3.56827573841882    7.31885532099676    0.12034171332934
H         4.72605610447628    7.63476728845194    1.41700999313655
C         4.53103244021478    9.68599347690274    3.38982520993370
H         4.90283774160452    8.67219490956995    3.53716156628038
H         4.39470579423755   10.13353539283333    4.37163931194066
H         5.30289870440991   10.25183102727926    2.86093482388017
C         2.12237836963618   11.71822496575388    3.78130720213827
H         2.62588324955695   11.43220398495547    4.70257706186008
H         1.08825192767608   11.95991949148543    4.01976436437986
H         2.60233185542332   12.62094925959093    3.39515480373192

