29
CSD_code = COFNOD | q = 0 | S = 0 | Stoichiometry = C4H12CdN2O10 | MND = 8
Cd        6.78494265596120    4.94799394258855    2.94000243136309
O         8.29621463825156    6.93103908241006    2.74621745345265
H         9.09470149728085    6.40586967438030    2.58766226200494
O         4.78897714789787    4.20437011953825    2.96891093032563
O         7.32359673301858    5.69854210728189    5.11375894637245
H         7.48072347063947    4.85307346693247    5.55676994330085
O         4.29326011847850    2.50002686173834    4.13745037491814
O         6.24461531615840    3.33955442065185    4.25620452401245
N         5.09457841778340    3.31627857013339    3.79239689894246
C         8.41094086074967    7.51455946363495    4.02691440731013
H         7.49099647471931    8.08304367334610    4.17815555850898
H         9.27799510954141    8.18581420275815    4.06797604955764
C         8.52441617538300    6.45566030644135    5.12317389424113
H         9.38851118256882    5.81049463986533    4.92116301591647
H         8.64681627654741    6.94440456284885    6.09890344284665
O         5.27325021123381    6.93105426781663    3.13448108269599
H         4.47492250185813    6.40569317193583    3.29316979619943
O         8.78058612352123    4.20384125179185    2.91223409925904
O         6.24571915488367    5.69928564219915    0.76666159151609
H         6.08899533243002    4.85398242886757    0.32323712962432
O         9.27601441845910    2.49912211729818    1.74470514915695
O         7.32513727667118    3.33886636556833    1.62480278898198
N         8.47506494974364    3.31578373444081    2.08877046109273
C         5.15796777775162    7.51473742737376    1.85392594445560
H         6.07774911809217    8.08341668400787    1.70255081147810
H         4.29077189732236    8.18584280320177    1.81326468453559
C         5.04466424477380    6.45597541342421    0.75751745542564
H         4.18078460210447    5.81054108643703    0.95957097653711
H         4.92198631617543    6.94473251108741   -0.21815210403194

