91
CSD_code = COFNES | q = 0 | S = 0 | Stoichiometry = C39H46MoO4Si | MND = 10
Mo        9.80810146475133   -1.97775912027104   12.48308881303572
Si       11.91266171949363    0.44441973336816   15.23339232545704
O         9.38250595381814   -0.47408722455149    9.83666982787779
O        12.26765213459069   -0.40935507006505   11.51598648699737
O        10.24831836336060   -1.57057653345464   14.61648414287401
O        10.50290845053592    0.61224682081893   14.34478371359795
C         9.49131045898273   -0.99804748709990   10.86134002006652
C        11.37574239115445   -0.99178077375380   11.96187130686256
C         9.75621263720536   -0.48085973136598   14.21236019738665
C         8.46893678224886   -0.49361749998104   13.61287305774365
H         7.78710757389864   -1.16700763282043   14.13846992208613
C         7.74704412759577    0.78267166657492   13.21104259964458
C         8.64222869486658    1.78724294527870   12.48183794053796
H         9.13803055579401    1.32374707343197   11.63221243175689
H         9.40178833828807    2.18175479116970   13.15014871392049
H         8.03813074389084    2.61619124816054   12.11781126849180
C         7.20209902960364    1.44900575325281   14.48571134069471
H         6.64923094184868    2.35136300766027   14.23371110419060
H         8.02427082996967    1.72244148353551   15.14387032133306
H         6.53414970829521    0.77631156203240   15.02158218804465
C         6.57411701135294    0.40274615358354   12.29973465356590
H         6.00118076293311    1.28669546007907   12.02938858455755
H         5.90609163808866   -0.29545402487734   12.80050455598357
H         6.94440309446963   -0.06238958926253   11.38901499714643
C        13.20368185812047   -0.78708557728903   14.58277369453427
C        13.21683936982014   -2.11529969647661   14.99937764330917
H        12.47847055329595   -2.44950043333327   15.71269790719273
C        14.15791235256822   -3.00769212446080   14.51868801110161
H        14.15350545562644   -4.03334421823974   14.86658246422184
C        15.11893458338909   -2.60322153879539   13.60213897129155
C        15.12486072894858   -1.27285895853817   13.19913931642154
H        15.87152456719773   -0.93679084448957   12.49351118741492
C        14.19065854935502   -0.38048800058361   13.68657656266192
H        14.21978711517129    0.64967353645732   13.36353430308255
C        16.13728799574746   -3.56299239430348   13.06481991417423
H        17.13350859830263   -3.28801982673282   13.41097621297084
H        16.14598539986901   -3.53788545342030   11.97617197205433
H        15.92854229953231   -4.57964146718215   13.39011729167813
C        11.44983975625293   -0.02318215710962   17.00766878976203
C        12.43623523878855   -0.36393822400588   17.93091468340590
H        13.47072512607692   -0.36189233021284   17.61801799873555
C        12.11456671672618   -0.71119011212798   19.22811978886333
H        12.89831101236626   -0.97226958110210   19.92605099110243
C        10.78998212697851   -0.73461976448140   19.65116096800105
C         9.80108402241862   -0.39857354377561   18.73676455311797
H         8.76401838379109   -0.41221091259617   19.04422604809356
C        10.12779296373651   -0.04694068277095   17.43988293800662
H         9.33963209967866    0.20747567238573   16.74453254873544
C        10.45042990274388   -1.09918751642886   21.06457951678673
H        11.02661672771482   -1.96395346012268   21.38867803982870
H         9.39118306988201   -1.32248597682509   21.16702054293050
H        10.69073752137836   -0.27051802563838   21.73127850344331
C        12.59132635894227    2.19574320368091   15.07407541815060
C        13.29220138034228    2.78254000085170   16.12116980183164
H        13.39901886366930    2.24121848380771   17.04975502546052
C        13.84554605599136    4.04195419821546   15.99502027919574
H        14.38422110334594    4.47950447106692   16.82444653088321
C        13.72112403378618    4.75712151824992   14.80935476598293
C        13.02700867169499    4.17401083588792   13.75740762208014
H        12.92228336954987    4.71161892725894   12.82501768341585
C        12.47389848906877    2.91384006809635   13.88762718573814
H        11.94235580526744    2.47285376695783   13.05680413701458
C        14.30760973036916    6.13064727865865   14.68324269489416
H        13.65941783225717    6.85915908700985   15.17161248753788
H        14.41181427312713    6.41522803406069   13.63902425086243
H        15.28352303748977    6.17925454901155   15.16229668198409
C        10.57184845763542   -4.17094227414265   12.19944298481870
C         9.92125084795906   -4.13883233635899   13.45239903915556
C         8.54941662187825   -3.78520726918683   13.24839571211616
C         8.34089761365842   -3.61840961217375   11.86165250829653
C         9.61222430907826   -3.82042932414025   11.19731608605409
C        11.97637167474663   -4.62647235482894   11.94673002565223
H        12.02075904308306   -5.71800019053047   11.93320646693139
H        12.64954042819289   -4.26008361824123   12.71939876356368
H        12.33458010035420   -4.25714882709824   10.98826472029649
C        10.48178470170296   -4.59336047451583   14.76092240903194
H        10.30519337071195   -3.84963773926211   15.53838143575583
H        11.55170806142509   -4.76753238638146   14.68573958984063
H         9.99540432981481   -5.52430159464147   15.06241071700800
C         7.49712856693395   -3.88573377743640   14.31327170792056
H         6.58101107969007   -3.37647836220650   14.01790978621045
H         7.85004717399449   -3.45848587677405   15.25285290712180
H         7.25324147866840   -4.93594567791127   14.49407989965730
C         7.01886504829753   -3.49283346773865   11.16865242019944
H         6.62205705040112   -4.48596741208275   10.94535245635538
H         7.11730349254731   -2.94831249671188   10.23152725786135
H         6.29569890525360   -2.96940184324459   11.79033831014133
C         9.78373845192729   -4.04403650789650    9.72119136564211
H        10.79421733135830   -3.79102280705667    9.40308157463638
H         9.08753669519676   -3.43340807236681    9.14846745572771
H         9.59834865805533   -5.09327951905460    9.47966795819702

