73
CSD_code = COFPOE | q = 0 | S = 0 | Stoichiometry = C32H32Cl2N2O4Pd | MND = 4
O         6.59252879206776    9.75986329157491    4.86585126329978
C         5.29932132751102    9.59088436129166    4.53021672466083
N         4.76814668550300   10.10244460187481    3.49188698164546
Pd        2.76324681942407   10.23065484110643    3.21621561796628
Cl        0.58054515352850   10.56681663768404    2.87883363465961
C         4.62435088374088    8.78216928909186    5.53831606831743
O         4.84281152190074   12.94108537726942    3.79167065481905
Cl        2.68854637191172    8.35575086350833    2.00865637411049
N         2.88991448802531   11.86134275262597    4.55266600028182
C         3.30752423884608    8.35326384892818    5.66040872447906
H         2.55233831433386    8.57555343949215    4.89386817762234
O         8.26141476940594   12.67774459574838   10.25895836308232
C         2.98019570553835    7.60014832256361    6.77514210533824
H         1.96794377355226    7.24621900573510    6.89636887031522
O        11.02696305569035    5.42905797194997    4.80782435295188
C         3.93233161838756    7.28944987095625    7.73945618372050
H         3.64552030424240    6.70350305458605    8.59954342615295
C         5.24647835231387    7.71525451359144    7.61405328335821
H         5.98629579814526    7.47313628953422    8.36119088450224
C         5.58170322487559    8.45586622081538    6.49917893281367
C         6.89527751474957    9.07625831439007    6.10537852010906
C         7.28824482435634   10.08081481968209    7.17401596042766
C         8.05462568908861    9.67625882961122    8.26283824815242
H         8.41953174120226    8.66149461739879    8.31412114809799
C         8.36030934628029   10.56525763973009    9.26844308828077
H         8.95721713209427   10.26431399374436   10.11440101230609
C         7.90307370606609   11.88445333217383    9.21623028661342
C         7.13210728471358   12.28734990717177    8.13211117734959
H         6.75968870688747   13.29646974375471    8.05633331387516
C         6.82767724306651   11.38554154587530    7.12663548179293
H         6.22943739513670   11.71713958225585    6.29107895962388
C         8.00645255484671    8.09086121021270    5.80085656596997
C         9.28019941613447    8.57884304466668    5.54734694287809
H         9.46314391622612    9.64103571962336    5.61332914192234
C        10.31712096465085    7.72769385532915    5.21218595093363
H        11.29401927789018    8.14350248670104    5.02346420389348
C        10.08838070961131    6.35772320200769    5.12106709057787
C         8.80315909410764    5.86887465874607    5.36289172838818
H         8.63488032883167    4.80727937349725    5.27916702335686
C         7.77420982073360    6.72506267987597    5.69058621627690
H         6.78586116723402    6.32558776256156    5.86047860019904
C         7.82455773126654   14.01569827269553   10.27209725568599
H         8.22392313611852   14.44638553438566   11.18871955150127
H         6.73188789649293   14.08104170805945   10.28865351497259
H         8.21064720979560   14.57361527501813    9.41308516173560
C        12.33809448234640    5.85861887360855    4.52740648106637
H        12.89947355751243    4.95539548873909    4.29454995431357
H        12.79238242869403    6.35376531227290    5.39157236469328
H        12.36406216890311    6.53234913367066    3.66524709284572
C         5.52148651141292   10.92471730273335    2.57155173497081
H         6.55212462174520   11.05085299314310    2.93190842907769
C         4.83456264347703   12.30448419211048    2.52134760439614
H         5.40629384768561   12.98231000235669    1.88510726467605
H         3.80204897306997   12.20184343675455    2.12623479088533
C         3.90876437080721   12.70218550077759    4.72518829196509
C         4.07597011761421   13.42680018499430    5.91556383241347
H         4.91281166640054   14.10256264027593    5.98358962846686
C         3.17442779009885   13.25768334605013    6.94001695933567
H         3.29036557173216   13.79802054947536    7.86699013100181
C         2.10481910611205   12.38799101514552    6.74860391715002
H         1.36582070024519   12.23418901778457    7.51706444763663
C         1.99936505981596   11.72450400595945    5.54662295254983
H         1.15960938406288   11.06975395690732    5.33254531001752
C         5.52543139370821   10.25337140579704    1.18194681214481
H         4.47679288592730   10.15580163113364    0.85668359691046
C         6.12301732614528    8.85135090572971    1.29720521138300
H         6.20481048615790    8.40073917150474    0.31200891074901
H         5.47834738310395    8.21733513741621    1.90116423764104
H         7.11344001976683    8.88838384219994    1.74874180526622
C         6.30278954687649   11.07887211535396    0.16027469074460
H         6.38168737003430   10.52039106787958   -0.76885307396133
H         7.30942870772925   11.28396517806838    0.52008109573449
H         5.80951687213037   12.02119633295569   -0.06168724298100

