41
CSD_code = COFPET | q = 0 | S = 0 | Stoichiometry = C19H16Br2N2PdS | MND = 4
Pd        4.58039888519756    2.64384300165801    2.03428849173453
Br        3.06560362814361    4.35371442521565    1.20743478762885
Br        6.16313890568011    0.99107092420918    2.87964452963357
S         2.64515804469030    0.46847442457229    0.58096002208160
N         2.57162752379901    0.81701489054694    3.08321556838378
N         6.04589318586944    4.00984045137521    2.01416302865526
C         3.18749590657121    1.28248533112649    2.00014880076910
C         1.65295479447842   -0.19319828704039    2.87014557453394
C         0.87550031611488   -0.86124720501293    3.80891686322661
H         0.93187369521507   -0.60921442928752    4.85457628868652
C         0.02111217489849   -1.85061242950450    3.36476182571672
H        -0.58995392811616   -2.37891576892720    4.07995494983491
C        -0.06786792112466   -2.17970382523801    2.01490681133971
H        -0.74525743943664   -2.95774402046350    1.69956130691344
C         0.70002691448535   -1.52286565373858    1.07353509136562
H         0.64111834467727   -1.76813523217707    0.02551220776359
C         1.55809828423491   -0.52998833262214    1.51496091554133
C         2.84275620823065    1.34897341213208    4.41083690051574
H         3.66755811297567    2.08853265668726    4.30951787142040
H         3.18679442134521    0.53239629254345    5.05351124198472
C         1.62834433416544    2.02829959660720    4.99070790248703
C         1.15842731915499    1.69622113457823    6.25390225898229
H         1.67066532984096    0.94549781741773    6.84012851112667
C         0.04361705527152    2.33349750085233    6.77042795394493
H        -0.31477061292001    2.07166531955451    7.75492313423589
C        -0.60957346815068    3.30160855957115    6.02697176894634
H        -1.48085477323402    3.79522937066157    6.43060192046395
C        -0.13897810410322    3.64134900084811    4.76945405916097
H        -0.63569409016744    4.40334580997837    4.18884853891769
C         0.97787610143760    3.01002728841336    4.25382857207794
H         1.35266068220569    3.29204738208304    3.27960628381795
C         6.29227193846259    4.86780273205971    2.99694452214508
H         5.66195851508106    4.78931227528311    3.88003570223674
C         7.29300708596522    5.81962273254421    2.90746847273107
H         7.46328293316575    6.50077977450117    3.72571781685247
C         8.05840295847257    5.87700349921720    1.75329327931670
H         8.84448337270629    6.60931751792582    1.65081773697928
C         7.79423639236582    4.97737236200300    0.73101586681830
H         8.36452386040926    4.98800976799066   -0.18402931970718
C         6.77630727748890    4.05718573056716    0.90304703390893
H         6.52927583443082    3.32788420129505    0.12703490684151

