77
CSD_code = COFPIY | q = 0 | S = 0 | Stoichiometry = C36H32Cl2N2O4Pd | MND = 4
C        10.93922400607061    2.68887314149674   18.21066775797642
H        11.59565945588923    1.89108580287756   17.89739631184401
N         7.84544520842931    4.93852728879892   22.19857234029791
O        12.82199906668936    8.67183075476304   14.12620829149937
C         8.56593585473183    3.84778295666527   22.49336389615723
H         8.18348841563513    2.91332308359627   22.09296446054114
Pd        6.45955218811724    4.55553438338474   20.68046560451538
Cl        5.03244037112247    4.16986509714339   19.01328472902551
O        13.89522025306093    7.91017201466996   23.44325087241886
Cl        5.51379758883212    2.93258926784198   21.89269464385226
C         7.19342728991066    8.16868080815423   15.20416690677047
H         7.55962884072619    8.27295228791501   14.19261735987125
O         9.49656443115826    6.96246434783059   19.24979840290740
N         7.41274223191288    6.11580573756065   19.77003833251279
C         8.73189812419342    3.40183033518374   18.89506205631713
H         7.67671886968590    3.17586615979610   19.09186485773001
C        12.70882177106154    8.44623354568081   21.50599265248569
H        12.93998538600614    9.47628249082564   21.72486936029114
C        12.25988708260036    8.16386563392649   15.25349805604138
C         6.21190977521756    7.90349813996119   17.79369243658192
C        14.40656668656934    6.97484453143449   24.36221483132087
H        15.08976779703695    6.26844759533315   23.88088363825047
H        13.60511487902913    6.42268140435056   24.86321667949147
H        14.95440294102182    7.55763903125093   25.10049664735345
C        12.13028756632422    5.79215648705789   21.00357246504024
H        11.90039739556391    4.75164728753499   20.82701968213581
C         6.63531029966667    9.14034647155959   17.32410630669822
H         6.57715986516385   10.00700092679830   17.96821772726791
C        13.17626454633261    7.46253663513887   22.38217268909152
C         8.23532098248150    6.11531103375820   22.68752448886745
C        13.15036516564619    7.65540614942782   16.20278872172035
H        14.20596002541024    7.69452778987051   15.98629649542569
C        12.87944893781885    6.13044981125597   22.11937296981912
H        13.22188195453078    5.34323921458476   22.77198094677662
C         7.11902843967736    9.27453157731674   16.03430054897841
H         7.43590980635511   10.24398280884553   15.67699006381831
C        10.81058101698210    6.44639256593494   18.92481571109697
C        10.89563411484104    8.11913684387832   15.51681249465662
H        10.17459939028178    8.49937463969041   14.81183686854352
C         9.23564638349964    4.69417570094192   18.99646719166579
C         9.37392249830259    6.23167871217603   23.50060527093949
H         9.63528980488522    7.20875541896236   23.87132721882795
C        11.68673922832121    6.76510638740566   20.12434775610611
C         6.46902063943977    7.38771900720405   21.60221157138484
H         6.02232634135293    8.34732145934652   21.87442237036061
H         5.72475537536340    6.57569156556443   21.76720191130365
C        10.43639440494331    7.57482710993296   16.70328855438360
H         9.37351585087235    7.54739904036692   16.88914771270591
C         6.90928568388077    7.42116867282128   20.12693467939282
H         7.69715913436140    8.17955090107205   20.01301248885810
C         9.60892249156495    2.40528612626336   18.50007281658074
H         9.25125817851212    1.39144428114055   18.40612213814243
C        11.97672267058108    8.10044477993328   20.39417582399589
H        11.61879651833597    8.86383688684504   19.72056022977921
C        11.32086135086150    7.08268450069900   17.64814449171216
C         8.60954736068165    5.95797162698740   19.36154061666046
C        11.97769740846566    9.19509973700706   13.12828268434484
H        12.63893557138514    9.53696698463480   12.33372141361345
H        11.39226487916001   10.04158975299484   13.50071739120363
H        11.30180780377465    8.43045823634524   12.73263454372499
C         9.69755487093790    3.88374775388744   23.27620241286563
H        10.24062058545098    2.97649924848620   23.48296105060976
C        10.10896878303242    5.10838408013992   23.79453233704618
H        10.98301705324013    5.17763182429452   24.42313040224304
C         6.30058030603441    6.79516530168150   16.95986194985056
H         5.97231977139705    5.83130398862798   17.32280649372008
C         6.78936289838481    6.92910042343722   15.67195214692365
H         6.84993153769246    6.06269940978001   15.02992650158171
C        12.68636070304940    7.12274534198344   17.38462130506803
H        13.38646379534968    6.74299470040837   18.11412076110288
C        11.43836184358821    3.97924376658530   18.31334834828831
H        12.46885827653771    4.20133184890143   18.08305921712813
C        10.57292939408666    4.97535699305831   18.71698925002937
O         7.58454445554261    7.26862580329611   22.47531658772346
C         5.72008479508105    7.74816383438510   19.20614551990308
H         5.00727432706071    6.91832836880539   19.26580879763592
H         5.24264900315650    8.66678434048376   19.55038873659359

