43
CSD_code = COFSOI | q = 0 | S = 0 | Stoichiometry = C18H19N3O2Pt | MND = 4
Pt        6.16434370461504    6.44621506537082    4.65608355349316
N         7.94057139545634    5.33077981120387    5.02346763950120
O         9.72803911099700    8.41623912476904    5.06918740431524
O         7.57404629969913    8.02655429371127    4.71720287637828
N         3.35163777755132    6.92231738093433    4.54949824806608
C         4.54773053176646    7.57100569468287    4.52105727890887
N         4.30532962331448    8.88977250778255    4.57395768128311
C         2.94747650168486    9.10213111599214    4.64017659846449
C         2.32449201579077    7.83632613729286    4.63285295212134
C         2.21974146719278   10.28004868264404    4.71365142036017
H         2.70922161870583   11.24069101956469    4.71263674819764
C         0.84559800643552   10.17263480501209    4.79381088309327
H         0.24349795187638   11.06597533389745    4.85260138838675
C         0.22272944851218    8.92696011971655    4.81039159854724
H        -0.85258996039569    8.87950219025213    4.88832012080912
C         0.94118443918157    7.74899290717356    4.73386886939235
H         0.42531339301788    6.80510424905030    4.76729931236471
C         3.41717239778694    5.52030791736830    4.41118105304380
C         4.74011293871976    5.02408465144575    4.41480836861569
C         4.87140770701810    3.66438736453953    4.15686561571038
H         5.84856926380795    3.20969557370976    4.08347436805219
C         3.77284559847006    2.83656504239434    3.96441201477414
H         3.92312657991233    1.78350917892552    3.77484491271375
C         2.49450866636452    3.35431697372409    4.00659903031659
H         1.63784006817320    2.71437848104751    3.85850827708306
C         2.31245699767369    4.71237673954114    4.21455394660533
H         1.31601860217379    5.11966565862176    4.19898398852209
C         5.27311503199748    9.95307619070985    4.54282861170323
H         6.27414043053569    9.52282887036989    4.53887126958968
H         5.15423246862744   10.58747694759458    5.42212955879899
H         5.13294371729910   10.55759681067302    3.64530310234631
C         8.74088403032596    7.70990008551694    5.10163864838434
C         8.84646355434236    6.27351951436312    5.69991494698347
H         9.88718243569557    5.92706479456783    5.64770509516501
H         8.55929830459985    6.35488341045220    6.75410402639712
C         7.93539163716690    4.09005987471337    5.79942693424672
H         7.37155724650718    3.31488848413109    5.28733976760757
H         7.47336588605672    4.26421693331859    6.77099291924165
H         8.95975528566395    3.72750080344884    5.95309293997391
C         8.45084797027838    5.06911281083337    3.67335543745719
H         9.45041019942179    4.61615130500084    3.71350675807872
H         8.52352365051518    6.00556492003462    3.11496089912513
H         7.77676600546508    4.39422022390394    3.14273293578196

