65
CSD_code = COFVIC | q = 0 | S = 0 | Stoichiometry = C26H35NiP3 | MND = 5
Ni        1.60628547657830    1.99673666102484    3.21862359703362
P         3.62383839731127    2.83558454574302    3.63708306228051
P         0.75342651165755    2.88999448885225    1.39392244154864
P        -0.00510932945845    2.84612241287100    4.51067520272023
C         1.66511961272218   -0.07830358919934    2.61169219171585
C         1.88844364639220   -0.02541317361578    3.95235117115165
C        -0.48619675559136    4.09846907871584    2.06649730833133
C        -1.21723832998420    3.49486393758803    3.25903909240397
C        -0.32884459505861    1.93826843317860    0.24701052378963
C         1.58221495121832    3.97656128486901    0.16201821860133
C        -1.17222440336537    1.88149758984312    5.55844309523489
C         0.15365780696866    4.33475986351274    5.58740313939677
C         4.15602241409726    4.44162927971182    2.94054364426462
C         5.37266842759621    4.67910593923935    2.31273390442677
C         5.66678074845410    5.94123184177302    1.82567557139823
C         4.75711840675898    6.97636242130347    1.96224241667310
C         3.54126121093226    6.74734455219462    2.58725216822407
C         3.24593345964271    5.48645645944612    3.06729231962784
C         4.96033287551987    1.74975527506385    3.03960049693052
C         5.86833203753904    1.09494068241763    3.86130826723696
C         6.79339042805470    0.22190695472075    3.31372806667886
C         6.81611856228400   -0.00903786882657    1.94913576617318
C         5.90016391718495    0.62812041305929    1.12513523833519
C         4.97303185460545    1.49359064599721    1.66936407244682
C         4.12774560388377    3.11165690522783    5.37409160699407
C         5.25724791604599    3.83855475937910    5.73443721085436
C         5.57820232488869    3.99830660962944    7.07002038023948
C         4.77910846644971    3.43637674227531    8.05368499074230
C         3.65150872815145    2.71409556704110    7.70025487241111
C         3.32762026834872    2.55641383687305    6.36502134834498
H         2.49351378909944   -0.16711821924943    1.91686284371584
H         0.68398999057717   -0.32800999802528    2.22202222057902
H         1.09074604017752   -0.23664111368112    4.65720062601408
H         2.89786398064037   -0.08870877774301    4.34615475523901
H        -1.18768211330620    4.39596375746303    1.28073426482143
H         0.07245937455284    4.98436950808116    2.38176531677055
H        -1.88903665099201    4.22343002099965    3.72343183265117
H        -1.81328789481109    2.63962937200930    2.92697818284516
H         0.28590477280979    1.23796102062212   -0.31617766044295
H        -1.05442712993727    1.36805978606639    0.82394612124930
H        -0.84866441294286    2.60174438793062   -0.44279050741091
H         2.22714325405444    4.68463375770572    0.67901267381553
H         2.19927058174818    3.36261731455166   -0.49231911378110
H         0.84878015112653    4.51526176071359   -0.43660563231830
H        -1.46073641565661    0.97395312109270    5.03136258453239
H        -0.66903005663982    1.59984152573249    6.48229255986724
H        -2.06144968909722    2.46421870383996    5.79438953358140
H         0.81978919755249    4.10696729258129    6.41769956893778
H         0.59150049840899    5.15305062575106    5.01997389159687
H        -0.81868201064283    4.64008651297485    5.97151207845823
H         6.09047515518369    3.87878456332663    2.20013403565695
H         6.61489433334047    6.11871213169479    1.33775153024417
H         4.99331970528215    7.95883463472679    1.57990568892164
H         2.82658755454246    7.55183325593462    2.69240570004592
H         2.29559280229810    5.28005063328285    3.54279688981406
H         5.85317042972023    1.26577279446658    4.92876772282940
H         7.50001697576665   -0.28236075512109    3.95794455666835
H         7.54044459474135   -0.69083924691500    1.52737890956900
H         5.90834458339366    0.43996169269283    0.06055432713713
H         4.23624632174819    1.98367954300826    1.04379952997483
H         5.88294139621272    4.27723611528267    4.96967910131551
H         6.45690085599408    4.56320656969450    7.34785328701984
H         5.03583927683432    3.56466349016816    9.09548853778873
H         3.02674532281024    2.27694180593684    8.46665607488579
H         2.44355479558359    2.00375986249506    6.06495658119449

