63
CSD_code = COFVOJ | q = 0 | S = 0 | Stoichiometry = C29H29N3OPd | MND = 4
Pd       12.59980981413348   11.62169745500360   12.49093465332406
O        11.61243820306533   10.19796426353594   13.87415508835741
N        10.11300965629954   11.41206269453280   10.73912343869095
N        13.94234206615976   12.57301866223320   10.06716422386678
N        14.18313999075361   11.70657329155554   13.78975797017811
C        11.09458424807648   11.65357900101145   11.32808848287951
C         9.07096304912527   10.82117657875353   10.10583151742889
C         8.90219281732073    9.44011582850645   10.28402090051516
C         7.84518330567514    8.83271704436761    9.62586602148041
H         7.69125958768872    7.77000732947379    9.74172090602476
C         6.98937357042829    9.57039785884623    8.82501950557184
H         6.17245543992315    9.07818782430979    8.31889204545350
C         7.17169472976559   10.93439915028141    8.66974347030408
H         6.49685456593196   11.50051755639248    8.04494200723073
C         8.21374143593597   11.58569922957198    9.30928433822634
C         9.85796835796547    8.68050288957547   11.14506557954164
H        10.84589393832790    8.67244970224859   10.68220129280860
H         9.52437939759724    7.65568351547968   11.28369138545166
H         9.97050692516802    9.15752619045587   12.12036177211724
C         8.44399617085812   13.05728233360382    9.17559772990990
H         7.73821157686613   13.49740143592422    8.47642450792847
H         9.45851874822208   13.24693975817730    8.82785996098127
H         8.33067370352071   13.54712912315041   10.14287343188810
C        13.86070229940969   12.61476036410317   11.32330576260997
C        13.06678255471867   11.87817004092401    9.25175446321759
C        12.98559104452002   10.47556940446903    9.29556115733606
C        12.13200947615446    9.83240758740122    8.41071622388203
H        12.06938413570263    8.75299297750520    8.42562484912536
C        11.35808510218834   10.54638699714613    7.51425553583971
H        10.68599727444446   10.02814645631395    6.84671318411835
C        11.45321303297910   11.92694376228891    7.47044011655464
H        10.86004357077909   12.48318219664161    6.75803502075474
C        12.30627573037083   12.60472029000053    8.32377158847158
C        13.82860634077887    9.67786560830203   10.25738335427272
H        13.89014106306139    8.64099816988207    9.93289488428090
H        13.39357597821313    9.69287909062753   11.27983545824008
H        14.83685150005805   10.09143032673926   10.30925297025434
C        12.41030250563440   14.09929080564295    8.31699360847807
H        11.84415779469135   14.52829125591583    7.49381504084460
H        13.45369629604638   14.39688073203616    8.22943384147713
H        12.03508671592606   14.50499439609863    9.25723304355915
C        14.86400526877491   13.28646673876016   12.14691248606067
C        14.98828337416085   12.79831057312784   13.46894826500339
C        15.83054763141508   13.47763834307443   14.35006424337648
H        15.87413348632074   13.19983638552199   15.39145473958667
C        16.56353073555232   14.56651948510496   13.90878906820054
H        17.19719504786386   15.09125150696313   14.60940545262250
C        16.49177084123181   14.99264255213786   12.59229988434345
H        17.07980313485434   15.83621944150449   12.26350665239784
C        15.63521791027055   14.35433910647042   11.71151229514891
H        15.52838711294043   14.69088060221770   10.69163874044226
C        14.49945743877559   10.77115458262657   14.67183942422384
C        13.58765137294232    9.82784602031095   15.15583224214698
H        13.96699411837805    9.15770233624873   15.91438640260533
C        12.24035964753254    9.64891897796372   14.81402678181734
C        15.90891949541498   10.62485815022734   15.20045629572960
H        16.63134091706616   11.10448530344049   14.54382239644880
H        16.15196245436011    9.56658814097031   15.27645630790626
H        15.99711095456760   11.05462907390445   16.19756177535464
C        11.47067610204152    8.64624384787744   15.65697208718137
H        10.43081256360880    8.62404377611986   15.34021139626506
H        11.52235156657466    8.91748241118231   16.70896038505386
H        11.90129511056093    7.65380346530718   15.53820234450063

