60
CSD_code = COFWOJ | q = 0 | S = 0 | Stoichiometry = C19H35ClNiOP2Si | MND = 4
H         1.30212347609549    3.50911200549718   -1.29086015752951
Ni        3.73300302433372    2.81911622373497    1.49450188746109
Cl        4.95252749408661    2.95600610034360    3.24453035015353
P         5.21298448462559    4.09082675865658    0.56217115136184
C         5.08023636195179    4.63270981561918   -1.19244177845101
C         6.96990738278705    3.57061934841417    0.61824286898600
C         5.30183652819257    5.71435559641390    1.39848910341238
P         2.76004648992208    1.14284835432543    2.43010197108595
C         1.22234218559585    0.39276964470106    1.75409066619806
C         3.84830660812662   -0.32763320793173    2.52302603717869
C         2.27566843685910    1.34137240048002    4.18337419803579
O         2.22079300075397    4.45174999196225    1.71766987175805
C         1.57925588208212    4.44665495288874    0.65842239265404
C         0.43664852845859    5.37409309705371    0.45416880431156
Si       -1.14866095419780    4.51042462557172    1.14149449013750
C        -1.56555134531628    3.01609153678755    0.02716533941706
C        -0.79922152745446    3.94825475846280    2.92644076561563
C        -2.57304453189308    5.77612622441940    1.07350151369210
C         1.86674448615585    3.46994289416534   -0.36612557036137
C         2.83799948470772    2.55887111803198   -0.11746324975967
C         3.16422434354355    1.46775640498646   -1.02706506474655
C         4.43606906589477    0.88737436503333   -0.99083117435454
C         4.76658990389165   -0.16024788624516   -1.82618664239783
C         3.82386900284515   -0.67055085680195   -2.70511619568435
C         2.55116755594905   -0.12356911766451   -2.73777581923794
C         2.22211023970794    0.93413662428622   -1.91225201144928
H         7.13586225980435    2.73320321033961   -0.05668546601219
H         7.60484597911329    4.40434140164375    0.32120697811331
H         7.21137980273412    3.26570989398568    1.63454643502781
H         5.89829157181288    5.30634971879260   -1.44341682468724
H         5.10807581716501    3.76726574938440   -1.85193355839536
H         4.13192051445472    5.14628517688488   -1.33807459870294
H         6.02810207070427    6.35569485290050    0.89927677696185
H         4.31755443745063    6.17832652768271    1.37828553213391
H         5.58843568370097    5.55571940433008    2.43618115240681
H         0.92002570018810   -0.46060621539599    2.35937833727634
H         0.42907487908985    1.13791057497493    1.76029269069724
H         1.38959446748445    0.06640871364138    0.72963816012657
H         3.35747940225017   -1.12090413715486    3.08513889003784
H         4.07451813110935   -0.67655771224830    1.51675744756266
H         4.77453806050434   -0.04196365388447    3.01831310890562
H         1.55142131166203    2.14898230778876    4.27005600268355
H         1.84007313776078    0.41435346162322    4.55555569206140
H         3.15753005216980    1.60329474593186    4.76395559542974
H        -1.38373244718139    3.07622264983994    3.20565851004035
H         0.25294462357270    3.69864873197495    3.03482302541539
H        -1.01907158334428    4.73430329589606    3.64283641048517
H        -2.75791188429116    6.11877069851114    0.06025316452557
H        -3.49312976816376    5.33518908329106    1.44216887543942
H        -2.36142660147229    6.64931661169501    1.68249219659919
H        -1.79050782354676    3.32786256609151   -0.98899951920092
H        -0.73817601909910    2.31411555805282   -0.01966490743124
H        -2.43286131791237    2.47940634024654    0.40028802791859
H         0.60292779332190    6.28947711593274    1.01864196022619
H         0.31104751907532    5.61798492024486   -0.59798864234034
H         5.16037343185793    1.27415067286101   -0.28098172448074
H         5.75714996453556   -0.59094077824350   -1.78711862974254
H         4.07613461387743   -1.49666000884536   -3.35359520604777
H         1.80936429390641   -0.52713358088462   -3.41247675563468
H         1.22217631799928    1.34206032892399   -1.93898288488595

