67
CSD_code = COFWUP | q = 0 | S = 0 | Stoichiometry = C25H37ClNiOP2 | MND = 4
H         7.77311997456007    4.52526674049347    3.99973323127284
Ni        7.69127824268145    1.83242096075147    4.34497922041707
Cl        6.42721003106814    0.17829595243219    3.91865558978144
P         5.98634258860388    2.31283373991158    6.46699551205214
C         4.18374931230640    1.94771500470777    6.21210374994110
C         6.47244108535040    0.67257072287961    7.13604240769280
C         5.79682969970292    3.50282299511966    7.84545331717155
P         9.48895687776457    0.79452256927192    3.61192156963880
C        11.21413603966114    1.42230319903879    3.44122336265166
C         9.23648879046948    0.12891530753707    1.92240821716494
C         9.80657691499682   -0.76560360622697    4.52685327464981
C         7.55943431382184    3.76688647746854    4.73873408206134
C         6.31494673771505    3.10955860827317    4.84024159697842
C         5.16318730886754    3.63643206289324    4.07644951695825
C         4.44667593055225    2.87701901596366    3.15743739831156
C         3.40166648107124    3.44369928561547    2.45033387962953
C         3.06077136633553    4.77109928779225    2.64667887696153
C         3.77882550745591    5.53712529787743    3.55006355319425
C         4.82527336157092    4.97699093142623    4.25807351400646
O         8.06415757114949    2.59131212122501    6.65750995607956
C         8.50054051012185    3.30949066316594    5.67831089731575
C         9.90966656092645    3.84253896500623    5.71830519697483
C        10.03284822772135    5.05109828104134    6.68485212418689
C        11.39126749922408    5.73126637497896    6.46170688042850
C        10.00028893583651    4.52950358032275    8.12282470759931
C         8.91274046007772    6.03272181018954    6.38155915113132
C         7.90348327675933    6.32535868383491    7.28967104871993
C         6.87810213435390    7.19845444053400    6.96464566059695
C         6.83871314467360    7.80263699722072    5.72187454837725
C         7.84051093408691    7.52715629188969    4.80713798030968
C         8.86029400200873    6.65385159355789    5.13520038953434
H        11.84019083989135    0.66512795883625    2.97255668535655
H        11.21894060916626    2.31961395990262    2.82584862083350
H        11.62285974124929    1.66672690440728    4.41839706872267
H         9.17773383348585    0.95153885326487    1.21199617076678
H        10.05457735089258   -0.53537884848896    1.64790969245665
H         8.29270472144719   -0.41286787890648    1.90539083505243
H        10.60838816160597   -1.32906512038611    4.05214159403066
H        10.07764770476904   -0.53795760906681    5.55661441727294
H         8.88957255692221   -1.35286314804731    4.52541376914915
H         4.08015064308844    1.22101436286037    5.40763091916226
H         3.76160207127074    1.52222024566271    7.12177958230158
H         3.62203425397707    2.84226668674351    5.95132194062913
H         5.59111739794190    0.05040039097467    7.25939747628675
H         7.16957461981753    0.18873618899994    6.45017856863132
H         6.97540039557261    0.84349626743989    8.08560803785829
H         5.50133194481041    4.46570989402841    7.43192445790870
H         5.01423823905419    3.14301419263890    8.50911645659162
H         6.72691549512252    3.61256789305356    8.39339393731581
H        12.19943671428594    5.02994046711039    6.65955918252606
H        11.50117078781048    6.09533700698392    5.44407544826581
H        11.49559673429266    6.57704504741871    7.13833862556496
H         9.12228556622176    3.91205609580539    8.29135975404154
H        10.87830268107110    3.91196280017254    8.30393274765157
H        10.01399505147623    5.35001877214172    8.83702304172139
H        10.57938638179514    3.05528013569791    6.06847373826737
H        10.20543894227482    4.14042471077213    4.71198786837766
H         4.72271845869370    1.84600502251393    2.98974612927134
H         2.85382997334641    2.84428708424269    1.73811009739277
H         2.24339927971754    5.21099227298208    2.09386771851372
H         3.52494564132598    6.57644687860632    3.70368501583636
H         5.39012940173443    5.57790724810427    4.95892695092975
H         7.90109852662420    5.87601524883873    8.26925444249751
H         6.10430438176667    7.40486522838020    7.69111043375050
H         6.03728209218357    8.48036363511386    5.46688350461495
H         7.82404022556351    7.99019990283506    3.83095918243996
H         9.62363475823448    6.45288689216132    4.39760547623203

