52
CSD_code = COFXOM | q = 1 | S = 0 | Stoichiometry = C25H17BrN4O4Re(1+) | MND = 6
C         4.93944253091126   -3.40595350649067    6.90801322705822
C         4.36741348456417   -4.15459729515889    5.87771353652351
C         4.69518543539063   -5.47701969536843    5.66189955617283
H         4.23282202269256   -6.02522669578423    4.85537790399288
C         5.62217244037267   -6.08649432832776    6.49048753560697
H         5.88396475435419   -7.11939038912674    6.32683449166194
C         6.20235154331848   -5.36423913626447    7.51941837795289
H         6.92403513156849   -5.83417615936065    8.16829095600408
C         5.86784937132667   -4.03895601749981    7.73069906478471
H         6.32234149507357   -3.47863233682580    8.53035025936606
C         5.06753968826054   -1.14398640434600    7.92425724436646
C         4.41513613398605    0.20683459768788    7.79733188008807
C         5.20415075356880    1.33196409727120    8.02625502073861
H         6.25045362846791    1.20611157680890    8.25890676543265
C         4.61151800106283    2.57937255254886    7.95878777700884
H         5.18299656770395    3.47882004186214    8.12010881026730
C         3.25365955489972    2.66020430403626    7.70488421001739
H         2.76913449798785    3.62760695728399    7.67124270115510
C         3.05944229117015    0.38676897066962    7.55535801750769
H         2.40427792063823   -0.46658895818608    7.42357435399132
C         0.88191239893161    4.49494462025953    5.84320210924793
H         0.57512330616955    4.91164227458122    6.79410064520365
C         1.33713011384915    5.32303163088468    4.83252725442330
H         1.39302572778418    6.38724632224855    4.99086898263662
C         1.71573429165915    4.75095923572162    3.62774445584064
H         2.08877763314180    5.35818854765547    2.81839149231123
C         1.59294771143972    3.38131696285953    3.47687819162999
H         1.87403563380559    2.91896106629008    2.54587632745642
C         1.10617779912402    2.61263956782770    4.53258165010089
C         0.86981675280255    1.16329876545988    4.43094652141315
C         1.00834066704077    0.45207002766257    3.24066586180765
H         1.35030493946169    0.94196890731310    2.34488041039340
C         0.68230441737708   -0.89168608248116    3.20555326104289
H         0.77736217269479   -1.45447136319589    2.29151836596398
C         0.22271478416331   -1.49384370953594    4.36621682396932
H        -0.05807840375656   -2.53278952404740    4.38363861017014
C         0.13134459785833   -0.73040298395055    5.51619837919737
H        -0.22317533498287   -1.17241783794789    6.43832941328087
C         0.23443237394631    3.12430061077638    8.74938755563529
C        -0.04005609167922    0.39119341583285    8.59909814824168
C        -1.65544322952953    2.03718833316949    6.98407607966470
N         4.55634165961893   -2.07259677314515    7.07333044589408
H         3.85819021143528   -1.76455382177349    6.40597023820296
N         2.48038040900249    1.58838530110106    7.51753497742976
N         0.77943389018072    3.17386697947726    5.71279138130462
N         0.44659318309365    0.56265315751476    5.55990707992523
O         5.96454047661089   -1.32019619505433    8.71324310673594
O         0.24450381472644    3.91605765622248    9.56994502628723
O        -0.18460505627280   -0.47286499062549    9.32924032400389
O        -2.76368691521381    2.17131605550345    6.76419975822899
Br        3.08117739521500   -3.33509483041370    4.71907379450062
Re        0.26561142298445    1.81646649838221    7.29229163816448

