52
CSD_code = COFXEC | q = 1 | S = 0 | Stoichiometry = C25H17IN4O4Re(1+) | MND = 6
C         8.64145699326621    9.26318298728350   -0.93657903726150
C         7.48574474187724    9.89654177669845   -0.49901298065427
C         7.06202263712713   11.08043057518107   -1.06896504782223
H         6.15801089320491   11.55797562196819   -0.72402429590191
C         7.81242821265358   11.65308322897822   -2.08192225310315
H         7.48183381111968   12.57668563519645   -2.53006056946125
C         8.98307715082790   11.04875109637199   -2.50822045497536
H         9.57360197011497   11.50052149744649   -3.28936921531869
C         9.39354952004813    9.85501922591614   -1.94226498622035
H        10.29589399413981    9.36741202559134   -2.28009780001814
C         8.26513549169729    6.91071736404494   -0.59152916279273
C         8.71154948904490    5.69061723868106    0.15928865837955
C         8.79835055125942    4.46147073357174   -0.48499330261243
H         8.62897560917158    4.39533809755351   -1.54848342449969
C         9.10566931237684    3.34666813413158    0.27555758031890
H         9.20973950952990    2.37416109790464   -0.17739412013536
C         9.26589287057190    3.49090475841922    1.64235262560589
H         9.49952281068301    2.62747145499329    2.25162600922207
C         8.89147119906465    5.74106064096189    1.53490434648467
H         8.80462106607660    6.68848214239759    2.05377213600797
C         7.63363082726868    7.43708087077403    4.60373317037089
H         8.61834835379865    7.84774970846207    4.78542934420817
C         6.52009593869410    8.25796273438521    4.61450188160422
H         6.62859540928313    9.31209472735804    4.80502781042722
C         5.27632432813807    7.69262725655913    4.37887968381305
H         4.38458546298877    8.29779396391620    4.37734835351564
C         5.19987851585546    6.33006629895015    4.15438569421606
H         4.24169021155391    5.86816072151716    3.98831349209132
C         6.36388413515125    5.56489725467645    4.17293826123373
C         6.35987576543907    4.09958637737658    4.03663074015654
C         5.22898863638092    3.37392010386286    3.66783449006245
H         4.31835089092150    3.88143943205301    3.39799367590341
C         5.28430961526298    1.99191161681695    3.63865002948667
H         4.41742912294565    1.41676669995343    3.35449426890244
C         6.46981303014542    1.36678687258543    3.99373335137591
H         6.55441284982510    0.29286780649236    4.01179328784479
C         7.55986097700459    2.15360098990991    4.32157881775723
H         8.50031466294669    1.69662925970834    4.60166158478990
C        10.64642366127342    6.12338770055331    4.40970846134813
C        10.60543233913519    3.37241282182078    4.55573073072303
C         9.16869050013613    4.83149623429601    6.45140464370783
N         9.02311471636944    8.01936908122894   -0.37218746668134
H         9.96848535314047    7.92443969610088   -0.03126088174435
N         9.14476680076993    4.66134811030120    2.27380682759204
N         7.56816263166540    6.12482692041726    4.39022657619700
N         7.52184143315587    3.48391839906502    4.32796517216908
O         7.26994898579739    6.88788008227786   -1.27464367892278
O        11.42846312411618    6.94765990668778    4.30289896998424
O        11.37211148875498    2.52789311863829    4.59195043708807
O         9.08538235798786    4.86116546174735    7.58563297581398
I         6.41168688421913    9.08517141268226    1.12333251519448
Re        9.23715315618841    4.77029302525128    4.49472207478638

