52
CSD_code = COFXAY | q = 1 | S = 0 | Stoichiometry = C25H17BrN4O4Re(1+) | MND = 6
C        19.46345057624969   10.40878131485537   16.50261312728130
C        18.90151070168506   11.59406372922887   16.03795167657653
H        18.07864888916833   12.04451205068887   16.56630408582210
C        19.39932946522069   12.19013171981385   14.89505338250279
H        18.96530174654968   13.10827834448148   14.53206529055326
C        20.45705262577890   11.60639963144603   14.21577143700969
C        21.02422602128833   10.42448575994594   14.66947071914057
H        21.84638074788048    9.97597144888384   14.13481249648311
C        20.52574217185455    9.82957118763841   15.81034171159192
H        20.96514501273841    8.90793392848426   16.16465443765805
C        17.98216997942080   10.08747535142205   18.46682742486445
C        17.78103491063104    9.17262152249464   19.64167108375896
C        18.78926199083994    8.57197347762671   20.38711055411335
H        19.82925150733188    8.66397935075853   20.11138600213073
C        18.42579194611992    7.86962773741074   21.52626231375097
H        19.16903120335919    7.37623844793847   22.13154779795593
C        17.09491073495478    7.82450438288308   21.90318568896815
H        16.80077578965171    7.29961565672514   22.80264577644544
C        16.46952376951081    9.03946315027133   20.08371066481327
H        15.68890135466496    9.48597570353038   19.48092083271609
C        15.35452742994510    9.24580608530605   24.76607320973135
H        14.97866209168660    8.25596738628206   24.99064418949532
C        16.06623478654247    9.95751230098041   25.71532424648632
H        16.25497401776650    9.52549062450682   26.68403994880836
C        16.51569472748563   11.22856044147248   25.39163933240767
H        17.07020849570177   11.81883080091204   26.10379898148664
C        16.22715394682998   11.73460114893285   24.13684660090300
H        16.54884559767982   12.72779994201240   23.87253364705228
C        15.50445604875659   10.95975439857059   23.23192382693247
C        15.10828339961432   11.44498715524875   21.89940258773990
C        15.55812378599317   12.64682631686655   21.35796236953334
H        16.27351600686747   13.25377730786338   21.88709367992579
C        15.09447095221232   13.05264479434367   20.11903283122589
H        15.44763247526970   13.97073489175266   19.67827653094565
C        14.16478290987510   12.26012619969855   19.46540814266184
H        13.75742418176941   12.54523212859998   18.51003240880323
C        13.78060657034190   11.06847169433400   20.05512401787362
H        13.06743535781057   10.41709851960615   19.56600907770898
C        13.26970762407246    7.85393651270519   20.39282743565390
C        14.10519849820470    6.88264195539802   22.83249964434740
C        12.29840044536112    9.02869570447645   22.76984379917710
N        19.01253348397404    9.75549479790465   17.66129427359262
H        19.51186640547984    8.90053163606358   17.86949656877728
N        16.12183560556544    8.41082834445447   21.20038947067772
N        15.08119991488925    9.72217368171542   23.55351126285398
N        14.25425345079129   10.65099979092703   21.22690706897368
O        17.23469619066213   11.03948930724004   18.33421020907302
O        12.84706880775301    7.42914440046174   19.42358104627592
O        14.16692752249886    5.86858806891295   23.35220580158549
O        11.29267162904711    9.28783821038672   23.23423152210200
Br       21.14059213636741   12.43290588014325   12.64682325434562
Re       14.05827435650460    8.65150567392271   21.99880650270119

