32
CSD_code = COFZIH | q = 0 | S = 0 | Stoichiometry = C8H17Cl2O4V | MND = 6
C         8.66283547988429   12.36276856413601    6.47514848485941
H         8.09622229604324   12.64108158016493    7.38246523244098
H         9.69792779621677   12.72793670617697    6.57135295826746
C         8.62645434579721   10.82796075407010    6.30757367191536
H         9.33512590608796   10.52105895069590    5.52492047697345
H         8.85908130343602   10.31430217539678    7.25198018257852
C         7.00474252989473    9.33843830370306    5.29505929701764
H         6.97781480218017    8.53458661739140    6.04609809444950
H         7.74468873282575    9.10542352862390    4.51618090402094
C         5.62203587211932    9.52107279210797    4.66575256537308
H         5.34387901779566    8.61695045712912    4.10841785681829
H         4.88579734572777    9.71653224541986    5.46188253973754
C         4.43740520053465   10.92490739144827    3.14209092711738
H         4.48187768812262   11.98895461777129    2.88075851082858
H         3.60463002661834   10.76440085233475    3.84037191559154
C         4.28082977364550   10.09415820226266    1.86898267446883
H         3.32198229623233   10.34665780730498    1.41255097675523
H         4.26368324020984    9.02821556950783    2.10915372285662
C         5.41745134808994   10.38344486400729    0.88804125483686
H         5.42453600616635   11.45202500029933    0.65981579276452
H         6.37270269138706   10.14376162670856    1.36148051317838
C         5.26881772996922    9.58243717235403   -0.39876252558866
H         5.27844452764464    8.51439246050264   -0.19033902584737
H         6.08597999186649    9.80486891619490   -1.07936730659939
H         4.33179651990593    9.82558884694720   -0.89552558454515
O         6.48067191068777   13.34774203344956    3.46603045326585
O         8.03942665386573   12.94111697547241    5.41187745501411
O         7.29942162994398   10.57783412554467    5.90089601631542
O         5.67489352022046   10.63734212086131    3.79679347516191
Cl        8.31146265472455   11.19343744838415    3.14965799344237
Cl        5.19891561396538   12.49395118904248    5.84654756960561
V         6.88746554818759   12.27805010458366    4.46241292692525

