74
CSD_code = COGDEI | q = 1 | S = 0 | Stoichiometry = C31H36N4OPRu(1+) | MND = 6
Ru        3.46939897070092    9.56578379589915    4.31255510964385
P         4.39214061144478    7.45046973581469    4.39237002443196
O         5.89399425461166   10.77526927049393    5.56462533291108
N         2.49677930301527   11.50831179963129    4.17269784375327
N         1.66367988520591    8.94472180031532    3.35903269430162
H         1.41391023572422    8.00894839434894    3.68886745314764
N         3.92365580966763   10.03905876594657    2.22821141428928
H         4.92136908837785    9.92138346658508    2.05266486303884
N         0.52380164701817   11.54906039051192    6.55315676046280
C         1.10093670566828   11.32958061030162    3.70711749722015
H         1.01307630440726   11.65218216130243    2.66635369880864
H         0.42788002957553   11.94606815437197    4.30967737073638
C         0.64073913714000    9.87607449952575    3.85549603632849
H         0.48473979120684    9.66807554273170    4.91775455633821
H        -0.31541183008906    9.74173924680222    3.33001194819836
C         1.75407274332302    8.91880841324680    1.88736522600819
H         1.17083570248921    9.74767864905558    1.47626188807124
H         1.32754016789945    7.99670843570219    1.47914153171785
C         3.21580115519577    9.03444779724021    1.43118703807750
H         3.72708429651957    8.07758634578839    1.58047980191698
H         3.24719787049978    9.26951359170712    0.35739325353027
C         3.53706260956094   11.42130299285939    1.89710110453976
H         2.63404194307529   11.40644771799356    1.28096563710236
H         4.31432860470288   11.92142692816616    1.30920962046799
C         3.30036769384274   12.23727938302185    3.17241347763963
H         4.27243796478965   12.46098049309840    3.62503394170652
H         2.82107861576830   13.19205880001237    2.91151357163170
C         2.51499572740206   12.31424601689007    5.41434212915067
H         2.00906019997216   13.27245801555183    5.22739347028569
H         3.55555928506415   12.51290061985499    5.68167946783332
C         1.84774883560815   11.64396132549543    6.59031758678458
C         2.59495025573596   11.20895948094591    7.67961297065706
H         3.66900920474780   11.31073730042652    7.68169526664195
C         1.93079169378788   10.64405543126027    8.75609071805976
H         2.48141621538673   10.29571197900957    9.61671538549044
C         0.54942111796080   10.53860685656156    8.71117139874031
H        -0.00629707834988   10.10968678313953    9.52923210685556
C        -0.10426802403205   11.00716090590364    7.58320543997584
H        -1.18119754329807   10.95561648639591    7.49235637599421
C         4.97272783905857   10.26830933650091    5.08992522901865
C         5.40358376201940    7.03236441801944    5.84963794543952
C         5.30151339477779    7.78599286557997    7.01415642401759
H         4.61235921060059    8.61962015901567    7.04191563854664
C         6.06718537380641    7.45823708186318    8.11927007380506
H         5.98878767403074    8.04747114902065    9.02033284512980
C         6.93390676689492    6.37874685750575    8.07045652761052
H         7.53440400483262    6.12794723882221    8.93141072399712
C         7.02907896906239    5.61851397341399    6.91557326731689
H         7.70034970411772    4.77400619395876    6.87724300273113
C         6.26799491492060    5.94003937625237    5.80722185954931
H         6.34686932217128    5.34477122777425    4.90839470626590
C         3.16945402064560    6.09490788629954    4.38410939187383
C         2.78538458207005    5.51564529143099    5.59080667518462
H         3.26633826721043    5.82840037870266    6.50632449998459
C         1.80028435462889    4.54455408524856    5.61583741518074
H         1.51712583093743    4.09362592667522    6.55456482376637
C         1.18028423554393    4.14763366393009    4.44206332183600
H         0.41745134383795    3.38488010456966    4.46208153979219
C         1.54196614566058    4.73282964439009    3.23930537517252
H         1.06111334595682    4.42681686666724    2.32169668338120
C         2.52399455965468    5.70703654094806    3.21000318656900
H         2.80565294889678    6.14886498015924    2.26252903083001
C         5.58444586650556    7.03511858263561    3.06876470757109
C         6.54592664058652    8.01230188582504    2.81275311056132
H         6.53330724356648    8.92368229492328    3.40304650710525
C         7.52078548920992    7.80484134007746    1.85557205456405
H         8.26781946542049    8.56206487063015    1.66981941963932
C         7.54238107760575    6.61638386261367    1.14134874400862
H         8.30000692239684    6.45144377522268    0.39110184607185
C         6.60116925250439    5.63484299235808    1.40291662376317
H         6.62972319524989    4.70155297273500    0.86112570500026
C         5.62584968576483    5.83618536962792    2.36567057270634
H         4.91056055639026    5.05421620862769    2.57653313387640
H         2.84618483209190    9.24158221408453    5.67071637563306

