44
CSD_code = COGFAH | q = 1 | S = 0 | Stoichiometry = C18H16IMnN5O3(1+) | MND = 6
H        -3.88012870022306    8.73742258814694    1.70247888969394
H        -1.48317605569855    8.16823244456758    0.21038336983257
H        -2.72430653224417    9.39643460093296   -0.08815043792958
H        -0.75149841639287   10.57073368754140    0.59352822900419
H        -1.78424100081815   12.71898447077772    1.32992051139661
H        -3.19369314378390   13.52332289786208    3.52064373626359
H        -3.56504481400828   11.24090885273416    4.94495546128971
H         1.59192623358841    9.87756411838148    1.11023935574602
H         2.75606005899550    8.27006931079139    2.98072295812301
H         0.67062108933523    7.35139969612481    4.45613543805079
H        -2.49079104072705    6.25608007338458    1.05112673192740
H        -4.04514703228934    6.40771004522980    1.89332639903789
H        -2.52973948210581    6.10647990784505   -1.33791941061255
H        -3.71084835275652    6.32846857308729   -3.47353071733440
H        -7.06114008513761    8.04573501165958   -1.44430872183860
H        -5.88716670619465    7.81244687292109    0.69307679657293
C        -1.91977101714720    8.60789273174425    5.53817937939289
C        -2.24608201604175    6.57528390444769    4.04553031422853
C        -4.10726850454775    8.24162052646180    4.36104865183952
C        -2.13624541975463    8.90171720834481    0.69447884907490
C        -1.22204603034226    9.95380024325474    1.36707549895977
C        -2.15168970019703   12.15158952356670    2.16062947160293
C        -2.86262491377241   12.53780286462221    3.27009813740021
C        -3.05676537964021   11.36540764658744    4.00698443347589
C         1.15034230250363    9.30618176075449    1.90113786425613
C         1.71799487298805    8.49137103825369    2.84978837148474
C         0.64704533945777    8.01548941332408    3.61201474967028
C        -3.39075098378883    6.86889831903653    1.14727637831337
C        -4.11288762649186    6.96533932894791   -0.17349558683710
C        -3.51653623908872    6.54607846194279   -1.35580843054520
C        -4.18126392038763    6.66477764221828   -2.56324225072262
C        -5.45274913478110    7.21427603563108   -2.59317827514189
C        -6.06542155519711    7.63191041196604   -1.42159594821313
C        -5.39496233345078    7.50478882147768   -0.21968318432847
N        -3.00145104803861    8.20864289666592    1.65858600102070
N        -1.95899105177660   10.81842892848465    2.25646281183370
N        -2.50659835962230   10.33400186662433    3.38501293148202
N        -0.18237944985236    9.29139162911029    2.11469261058631
N        -0.49610971020217    8.50500664340360    3.15465383157324
O        -1.63921756436656    8.76076110343919    6.63253240034268
O        -2.15856345446965    5.44966072429351    4.21099004315479
O        -5.17944810100454    8.13781840690361    4.74186993690861
Mn       -2.39873620838964    8.34791754978369    3.82615663578998
I        -6.46670881213668    7.41805121672013   -4.43572421582670

