90
CSD_code = COGHUD | q = 0 | S = 0 | Stoichiometry = C44H39ClCuNOP2S | MND = 4
Cu        4.71297251165360    2.58066919298424    1.33778890025417
Cl        5.57915233676198    1.44756246376735    3.14827174738227
S         4.32503012225517    4.86307936557403    2.09099890648888
P         2.89766413957861    1.50490286600759    0.59951576411634
P         6.42726492286609    2.91544412774457   -0.12547350276835
O         6.13602405468704    6.53454308747153    2.97997744488635
N         6.54067630106794    4.33056142035080    3.38659541984345
H         6.19531076867272    3.34700148972240    3.30963994932006
C         5.75252356954217    5.26286075252400    2.86263947638175
C         7.79907029891360    4.41968265932733    3.98721745717102
C         8.43245442823504    3.20650234348012    4.26304393216194
H         7.92458044346240    2.28502612648256    4.02405750405877
C         9.68639917396563    3.18927952107355    4.83786728161588
H        10.16526645207878    2.24371869604959    5.04491449735250
C        10.32915675195148    4.37676643178079    5.14973676491183
H        11.31141955803406    4.36391474811060    5.59825802670307
C         9.69796905092917    5.57966706509250    4.88933014660781
H        10.18636901288667    6.51060596194903    5.13871769695067
C         8.44018845309361    5.61114305354099    4.31315257475908
H         7.96590569592130    6.55813346371476    4.12408494467935
C         5.31243030217432    7.53401852587736    2.41338253342077
H         5.82334181927920    8.47699320548224    2.59583866583259
H         4.32740369946520    7.53581048075264    2.88497558075727
H         5.18412820516421    7.36889967394561    1.34100431316898
C         1.77697578731216    0.81920298570825    1.86056009285094
C         0.74953832806656   -0.06220947544226    1.53559189954296
H         0.60840895844806   -0.37127449518416    0.50880070445069
C        -0.07953382366423   -0.54152279644327    2.53118020176565
H        -0.87529512179354   -1.22945488991527    2.28328123438006
C         0.10756118791586   -0.14291322073235    3.84681477010041
H        -0.54309925868040   -0.52399686955270    4.62048733495760
C         1.12428543393751    0.73935794155728    4.17001076201113
H         1.27036089536764    1.04777036699562    5.19467399197346
C         1.95821056928549    1.22410443893093    3.17761358857507
H         2.76311473478314    1.90727097555104    3.41576145795059
C         3.49729288633256    0.04207410248346   -0.28579649914261
C         3.97819442763296    0.19149781046721   -1.58619531743666
H         3.89639460271188    1.15153564106439   -2.08034598008932
C         4.55105492147064   -0.88073592644588   -2.24116805207531
H         4.90835127047895   -0.76363306934242   -3.25389183871815
C         4.67819570738501   -2.10075540260798   -1.59621667593260
H         5.12962937810754   -2.93711508787172   -2.10908621771761
C         4.23854636218885   -2.24297761201732   -0.29076000183426
H         4.35365832368035   -3.18876389284857    0.21851915800911
C         3.65372911546694   -1.17660441334070    0.36727046171101
H         3.32031485167764   -1.28237887712955    1.39026234955032
C         1.67692798659844    2.25054130101587   -0.53346825864973
C         1.35896087923216    3.58228818731095   -0.27629424437232
H         1.85707615488547    4.09397011985381    0.53874822609656
C         0.43074258361449    4.23959189622146   -1.06114288026771
H         0.18788908645960    5.27249763088431   -0.85933544282717
C        -0.18161081042190    3.57176699673584   -2.10984356320334
H        -0.90504233719677    4.08343848558120   -2.72777076488098
C         0.13549371078980    2.24841135299400   -2.36996585357239
H        -0.34229306294518    1.72995445268698   -3.18894485007088
C         1.06178735755766    1.58396031312965   -1.58594973727821
H         1.31148329422520    0.55365400544268   -1.79815557011907
C         7.94425233440890    3.75104054602526    0.42915148126583
C         9.03181216584759    3.04417694154069    0.93074641506606
H         9.02658888557167    1.96372816492435    0.90826546731068
C        10.11739696959582    3.72597362789207    1.45013275634663
H        10.96391019960219    3.17400311902466    1.83066796667740
C        10.11979491106988    5.10961197678146    1.49083559337791
H        10.96785516362517    5.63666044455139    1.90111998304362
C         9.02723795223006    5.81790690163016    1.01532218570709
H         9.02216175745281    6.89744204097060    1.05631945591494
C         7.94167659150338    5.14437635670179    0.49228284741236
H         7.08473616007098    5.69109771966342    0.11881251888279
C         5.99960112331734    3.85533737941416   -1.62670612067679
C         6.94048050185465    4.42255769587471   -2.48198541548148
H         7.99501370993359    4.33728212065190   -2.25676685381971
C         6.51978836775680    5.10166606499658   -3.61079371117246
H         7.25038810151356    5.54070463266432   -4.27503177273697
C         5.16750165632376    5.22154898631147   -3.89417686927207
H         4.84849979720451    5.75344535852400   -4.77850016803673
C         4.22746121151265    4.66858072806144   -3.04030880674461
H         3.17192129346013    4.76696144618795   -3.24922822917350
C         4.64509059032089    3.99221530036232   -1.90900040477840
H         3.92180973299005    3.57291815415665   -1.21884632286806
C         7.05095130448313    1.33501051442475   -0.78051737682934
C         7.41153925420676    1.12369275683330   -2.10561019502151
H         7.33381583922189    1.92515225127256   -2.82651750225214
C         7.86596144310683   -0.12116329030608   -2.50247077765792
H         8.15062768932277   -0.28277220511572   -3.53257810540114
C         7.95681109130474   -1.15800382024490   -1.58881048172557
H         8.31357820448952   -2.12685695522908   -1.90666273898606
C         7.58154573580882   -0.95506053084394   -0.27091116347589
H         7.63917110054731   -1.76466921217814    0.44152187463769
C         7.12453180382839    0.28489365280525    0.13227794217749
H         6.81338090320943    0.44940143309443    1.15578601619195

