37
CSD_code = COGJUE | q = 0 | S = 0 | Stoichiometry = C16H13AuCl2N2O2S | MND = 4
Au       -0.81752692835058    3.71780382607648    2.55099208630314
Cl       -2.10588117430961    1.89611607807447    2.57969159231488
Cl       -1.99365601525564    4.67196758909593    4.17212740951370
S         1.25682676115358    5.31927648479484    3.90411448687835
O         1.12417558564674    3.96972136071342    4.39969634566148
O         2.58063097225997    5.81041377056081    3.66356005265201
N         0.22367389306413    3.10630334032368    0.91541222373888
N         0.39991860782417    5.29332651891443    2.43905600500345
C         0.10983930639241    1.98210839027517    0.24382781833125
H        -0.59607087321169    1.26139257866697    0.63388982253051
C         0.84914861212686    1.74570422804243   -0.91957355032695
H         0.71796515806307    0.81067767773431   -1.43978269169546
C         1.71792945904697    2.70390912446849   -1.37758073705506
H         2.29202198397187    2.54847734384664   -2.27942765789539
C         1.87254669740363    3.90837883115127   -0.66253592754012
C         2.76052917101678    4.94222183316127   -1.01159914119519
H         3.36888315756241    4.83357865040157   -1.89587577528330
C         2.85473761024330    6.05991387911526   -0.22060380398499
H         3.54502597284494    6.84584858039085   -0.48727439495719
C         2.08287632093114    6.21707343048098    0.93421372819492
H         2.19834068182630    7.09089419450413    1.55271506332540
C         1.18807838630189    5.23097101261618    1.30724141874927
C         1.08427616050288    4.07200135205912    0.50649377740091
C         0.36786364391857    6.46653048662300    4.93028896969352
C         0.00645311530265    7.68819080736119    4.40201387953001
H         0.25278877479340    7.91646076886073    3.37691521497471
C        -0.68387186717285    8.58552002567289    5.19770046996240
H        -0.98075878393886    9.54121366314782    4.79150739364961
C        -1.00664746491201    8.26568201310781    6.51198996807604
C        -1.77532548310498    9.22156440637839    7.36915708160589
H        -1.79422146122527   10.21516551818118    6.92979574182469
H        -1.33982513221646    9.28152319239442    8.36424309990481
H        -2.80232029911555    8.87367391079985    7.47610442985532
C        -0.62335177184344    7.02695579596684    7.01950431607170
H        -0.87488063775524    6.76804158843589    8.03708008546795
C         0.06363673178113    6.12215982783796    6.23255972166180
H         0.35127112844060    5.15013791979573    6.59966147705264

