24
CSD_code = COGJOY | q = 0 | S = 0 | Stoichiometry = C7H9AuCl2N2O2S | MND = 4
Au        2.52256228872961    2.58508435549971    2.78380843909212
Cl        0.96623851523287    1.03539358621436    2.52411304443248
Cl        1.42401205252192    3.58612404563744    4.46004828020073
S         2.99562500953402    2.60890172579531   -0.05216271963338
O         4.07926806256766    2.94111762170254   -0.93149512526040
O         2.19735278564592    3.70982255800990    0.44792254641101
N         4.07888236610330    3.91410432635468    2.80780504886410
N         3.59136235064188    1.80795618480574    1.29173761166806
C         4.02883532224600    5.15122051212092    3.29003539132881
H         3.16935282195019    5.38075231802579    3.90495193427956
C         5.02515281856366    6.07006949392457    3.02486993116430
H         4.95748313485277    7.06623469132871    3.43053797553469
C         6.09137401062097    5.68599411519879    2.22339254839808
H         6.87740549768464    6.38592692131408    1.98320609487855
C         6.13124394859561    4.39373710308031    1.72745317842233
H         6.93626006468538    4.06040117545330    1.09284409149155
C         5.10100708993711    3.51769591467614    2.03663793803175
C         4.98527264582519    2.11527076367837    1.53002836676413
H         5.53026527244362    1.99041599785619    0.59065704288099
H         5.37424356243405    1.40775602698449    2.27118791874726
C         1.92965995011072    1.38447228109591   -0.81483001775690
H         1.36724613858625    1.87443848075408   -1.60015774621700
H         1.27257647732811    1.00318428486243   -0.04195965591741
H         2.56471781315771    0.60492551562686   -1.21353211780559

