73
CSD_code = COGPAP | q = 0 | S = 0 | Stoichiometry = C36H34P2Ti | MND = 12
Ti        1.50163902894607    6.33083848035491    5.12897381687673
P         0.10040063139563    5.99797959903887    7.87245567491986
P         4.04016431582244    4.23932838205150    5.37064243412953
C         1.25312798040470    5.09446033080700    6.77756026681244
C         2.77178928885883    4.89180402191549    4.23165765880859
C        -0.65573257852013    7.15079700106798    4.62151868965318
C         0.08527250239133    7.23004404710141    3.42511554985680
C         0.38317459267740    5.92314434117149    3.00978225605189
C        -0.19039859530827    5.02900668426044    3.93873319743965
C        -0.84048049523920    5.79001878514769    4.92627734158482
C         2.86452096799211    8.20344051546109    4.45074843019059
C         3.62028788429136    7.39379799337758    5.32095579654459
C         3.00216568274686    7.41831156733759    6.58884694461904
C         1.87322409727426    8.26124313994323    6.49846303514264
C         1.80483153383320    8.75872738548446    5.18909099885255
C        -0.87045612326808    4.64980491303767    8.68195703459896
C        -0.50459526145820    3.30988706999229    8.70626180721189
C        -1.29994761716335    2.38526399491037    9.35940779074381
C        -2.46505673757778    2.78423095628458    9.99167654455985
C        -2.83818143594860    4.11795688879740    9.96822281492601
C        -2.04591388426315    5.04214103224002    9.31424932882918
C         1.14689533981857    6.32714957624761    9.35731809991021
C         1.98799200639318    5.36960289106479    9.91361087604455
C         2.72896162816185    5.66529680270678   11.04223858116946
C         2.63219159375073    6.91439753919671   11.63500362520835
C         1.77850265809151    7.86438034556939   11.10229764627558
C         1.03767939691726    7.56877967491457    9.97163879261327
C         3.18709908817679    2.80150189380006    6.15914771973133
C         3.41985065039453    2.58518454842678    7.51371697596530
C         2.83740504706739    1.51708763061620    8.17193903566067
C         2.01477773534389    0.64620417802952    7.47732129866790
C         1.79462241246958    0.84043759080966    6.12361904959476
C         2.38247594288555    1.90603658151167    5.46600376483989
C         5.08360412083636    3.16451984794743    4.28899886421970
C         5.13187174373773    3.27102514956539    2.90521662005297
C         5.97529265074219    2.45761550199454    2.16786901974250
C         6.78795322054455    1.53579379345722    2.80296662900357
C         6.76045230037073    1.43495642315062    4.18511969244373
C         5.92029846701218    2.24664107370669    4.92065623998714
H         2.18347911747899    4.88907860203457    7.31274264181699
H         3.31483937091495    5.45790366095708    3.45858045523934
H         0.78556683823029    4.15291790580391    6.46552527914653
H         2.26921631512017    4.04609626733511    3.74500390436772
H        -1.12144327390413    7.97670076347022    5.14304875423845
H         3.13266278948403    8.45697995755107    3.43137930859605
H         0.28090893721416    8.12694935564089    2.85221700697938
H         4.58350710970518    6.95171696288003    5.09951463896884
H         0.85709902865479    5.64954281319063    2.07477694749056
H         3.41360487936567    7.00408787903992    7.50006426897118
H        -0.23107497200169    3.95016159269286    3.84731621211768
H         1.25919935582367    8.58528474489273    7.32711073841602
H        -1.47658516405382    5.39532784014078    5.70953381448881
H         1.11743290434211    9.51747074912171    4.84036575609940
H         0.39895061765828    2.97388069365064    8.21756430229210
H         4.06373104026265    3.27006297425848    8.05145696073884
H        -1.00547836659826    1.34538280495890    9.37392835720745
H         3.02101208859717    1.36420700579628    9.22613076449471
H        -3.08207233115367    2.05741680153827   10.49951735054069
H         1.55214594661505   -0.18616965057753    7.98709981968084
H        -3.74803105378617    4.43455270255181   10.45737080998058
H         1.16468194128815    0.15315755655927    5.57682514905157
H        -2.33132255563663    6.08574942594168    9.28861676572897
H         2.21825578097040    2.02896019548664    4.40427243411645
H         2.05737068414257    4.38547829665514    9.47183080104792
H         4.50969103186329    3.98865670198442    2.38928626398316
H         3.38302725294442    4.91676473007368   11.46685956510001
H         5.99686974365271    2.54552102648683    1.09054245926332
H         3.21497519593273    7.14202340404153   12.51554477948100
H         7.44339512135051    0.90086988948731    2.22493652563921
H         1.68863666033397    8.83508217899345   11.56846042206760
H         7.39795025365102    0.72179009233633    4.68800751296356
H         0.35951181414367    8.30631585114333    9.56239658578698
H         5.89962411677682    2.17004005114383    5.99949270028738

