84
CSD_code = COGQIZ | q = 0 | S = 0 | Stoichiometry = C35H46FeN2 | MND = 3
Fe       -0.69158362742042    5.21469241546170    2.20799003154670
N        -1.58010460474162    6.49057411429787    3.36970702760580
C         0.46620580754289    5.21472087349331    0.69240946044565
C         0.90473955377995    6.40894262369227    0.11296021898300
H         0.59108981421806    7.35719948407008    0.53672315280631
C         1.73433305322301    6.41101176737025   -0.99519609406555
H         2.05570415456778    7.35088594864030   -1.42391926192412
C         2.15139611914957    5.21470618672389   -1.55515880903140
H         2.79813404754780    5.21470123932033   -2.42099116075628
C        -2.88000544737490    7.71217187054238    5.04305830491639
H        -3.38969168659602    8.32202375135712    4.29776697576025
H        -2.04394008146861    8.29611077762673    5.42716375816114
H        -3.56578033013829    7.49988658906145    5.85826746871373
C        -2.38116807384375    6.43610220711548    4.41722064066457
C        -2.77987382153617    5.21474197271397    4.95257968457008
H        -3.43338012022486    5.21475975745804    5.80890400560694
C        -1.20476996350719    7.73422030454720    2.82653933015820
C        -1.96007360054337    8.29962490278633    1.78407608370031
C        -1.56544558347110    9.51739854321968    1.25052201313689
H        -2.13063560770283    9.95610533823097    0.44216435575988
C        -0.45384261278456   10.17923645556211    1.73634721985851
H        -0.15993611652629   11.12734844152874    1.31060336053477
C         0.28878692152213    9.62129125884859    2.76124144981724
H         1.16275657044562   10.14067107398566    3.12270176995349
C        -0.07384671337830    8.40822430414641    3.32374165544090
C        -3.14935689605923    7.56134807446795    1.21744628210789
H        -3.35565960112574    6.69710742666579    1.85948954651924
C        -4.40289499141484    8.43570692839438    1.16485516088189
H        -4.62372336136444    8.85408864983316    2.14496913203125
H        -5.25690603844124    7.84202710563650    0.84598923602590
H        -4.28140858918404    9.25693544390146    0.46275140320078
C        -2.78857544099075    7.03426845987747   -0.17284574085458
H        -1.91973956657597    6.37887861512017   -0.09974857973597
H        -2.54636766787827    7.85343717772404   -0.84602839191045
H        -3.61938052000333    6.47463681852301   -0.59501708004347
C         0.77093791213962    7.75853843284273    4.39339779677667
H         0.16539790210500    6.99696946823892    4.89585855470628
C         1.27651639870644    8.74284833076852    5.44728066603650
H         0.45655353171950    9.33495587355052    5.84887269282125
H         2.01909815652173    9.42002437655988    5.03314383458160
H         1.74096663270623    8.19896882633661    6.26698251078623
C         1.93508820815132    7.04412454245283    3.70291427030177
H         1.53945871706042    6.32562780248791    2.97985456063308
H         2.54804782760079    6.51683290967443    4.42938705702122
H         2.56024563245296    7.75728404575259    3.17031199363159
N        -1.57986727684506    3.93884305841831    3.36994331356585
C         0.90412987035270    4.02048915233235    0.11252993199939
H         0.59003242917446    3.07223546865433    0.53597827078501
C         1.73376288205085    4.01840588124665   -0.99559644842927
H         2.05468888186895    3.07852636551245   -1.42463284907815
C        -2.87934438074678    2.71730264373355    5.04366038063959
H        -3.38908787911004    2.10723214997287    4.29858604384347
H        -2.04308090657161    2.13358097417834    5.42767370509393
H        -3.56497503144529    2.92959996691172    5.85898529772799
C        -2.38087075364021    3.99335819265236    4.41750257755763
C        -1.20471234769846    2.69517468739484    2.82670063859391
C        -1.96058598615174    2.12965229070508    1.78471418108670
C        -1.56612354731974    0.91193385293741    1.25092266610012
H        -2.13167128095881    0.47320483730619    0.44282824776199
C        -0.45419565041611    0.25019593586340    1.73614864321270
H        -0.16044346923241   -0.69789614303059    1.31025291195136
C         0.28892978319205    0.80820257133160    2.76064467406399
H         1.16308449835161    0.28885535894575    3.12170417742300
C        -0.07346893586208    2.02127451201469    3.32329799568092
C        -3.15023615743834    2.86787506108024    1.21878337505588
H        -3.35664675457816    3.73169118252450    1.86134693541354
C        -4.40355939181533    1.99323106516960    1.16598567162002
H        -4.62401590824894    1.57420470965672    2.14590353599760
H        -5.25779407305085    2.58690722255921    0.84772142679496
H        -4.28208512247398    1.17247129801244    0.46334107562287
C        -2.78987756129409    3.39586951914592   -0.17126724439879
H        -1.92123369310899    4.05150121468409   -0.09789468156886
H        -2.54750041437014    2.57716015519444   -0.84494476331111
H        -3.62092669134643    3.95547908216792   -0.59299174325178
C         0.77185447928359    2.67100032320308    4.39250061672563
H         0.16665041899115    3.43279517861175    4.89503033891087
C         1.27761480283960    1.68677588286487    5.44638151026381
H         0.45768202943227    1.09489454037457    5.84836274117611
H         2.01991260713020    1.00938434651458    5.03208993933964
H         1.74246757599618    2.23069957183361    6.26582358686945
C         1.93591819739424    3.38500278278166    3.70144737054730
H         1.54022745247794    4.10343494014768    2.97836475667277
H         2.54924958496609    3.91230056922984    4.42760003963931
H         2.56073142335582    2.67158808655344    3.16878360441999

