108
CSD_code = COGQEV | q = 0 | S = 0 | Stoichiometry = C39H65BFeN2 | MND = 4
N         0.53835314419509    4.58220818425314    6.07073730525852
Fe        0.06987978476136    5.15938657372991    8.01913144543892
H        -0.19235302201265    6.81813522302567    7.81282053009732
H        -1.53996505425993    5.49044123230876    8.02327990417861
B        -1.39061455399293    6.76257484548244    8.26655202746449
C        -2.39921500060242    7.65751840424598    7.37559978647416
H        -2.09580510885035    8.70880224768839    7.40919227963989
H        -2.33527038299587    7.36163300103287    6.32603138328485
C        -3.86749459995979    7.58202023371341    7.80284907455038
H        -4.22142794406727    6.55307901193812    7.76965333998607
H        -4.49953676662791    8.17891506471928    7.14507748272184
H        -3.99385837184130    7.95088294343408    8.81829116702090
C        -1.41244898375565    7.04461116347738    9.86860729030101
H        -2.40547605659215    6.85076025055842   10.28302774339782
H        -0.72983794631381    6.36511541295615   10.39294931016994
C        -1.01967811655727    8.47669880780161   10.23968614606863
H        -0.03130114419914    8.71391922934592    9.84974131891888
H        -1.00131444851242    8.61422916254452   11.32142153173850
H        -1.72689107677405    9.18759998153762    9.81946691855597
N         1.01012989934553    3.74303614258151    8.61523690363204
C         1.64832280527300    3.16581349396443    4.25434561426614
C         1.27251666183444    3.57152245472737    5.69896225488717
C         1.84821615977734    2.72364367547380    6.67337488453297
H         2.44696988490283    1.92024310163162    6.29004334014340
C         1.74191582250020    2.78488955142229    8.05025704798047
C         2.51600050598491    1.68767804246411    8.81229810499343
C         3.18466568387250    3.17564269927819    4.13730739233839
H         3.47475335653946    3.04703983142207    3.09640135628226
H         3.65116933375846    2.37825663268588    4.70791475698578
H         3.58699990527180    4.12199781450698    4.49104215747119
C         1.11779526274149    4.06705033992509    3.13602855033912
H         1.49293047985672    3.69508893779514    2.18260094736417
H         1.44922147138295    5.09266089927232    3.24924528345114
H         0.03567354414385    4.06466981674520    3.09153498804684
C         1.11946601294824    1.74855733255212    3.97830500991921
H         0.03971479047611    1.71878770988360    4.09419613944175
H         1.55057764096533    1.00890936949047    4.64658845309368
H         1.36316095040926    1.45961644435543    2.95758561166385
C         4.00913779624692    1.78925953703001    8.45761564359614
H         4.40612828608872    2.75465616003724    8.76381435834572
H         4.19053196478340    1.67113611115335    7.39397772528773
H         4.56295293824862    1.01247019915997    8.98119801873117
C         1.96560753754925    0.32020000974640    8.37338147475648
H         2.14495821956281    0.12639157228113    7.32034371878212
H         0.89319826398734    0.27165118068438    8.54690496791346
H         2.44375869153934   -0.47255111745348    8.94531009313539
C         2.42776897630183    1.74056432513692   10.33969782437748
H         2.98186520845110    0.89592533492951   10.74794299278643
H         1.40534671176689    1.66971349082935   10.69390491096415
H         2.86952662443574    2.64809783371942   10.73714618385977
C        -0.15857282175614    5.45731376683780    5.23319588791666
C         0.37474874269294    6.72952681225511    4.95070469560632
C        -0.33198294218554    7.58559100043815    4.12193395684422
H         0.08086524751172    8.55223895678112    3.87686360036413
C        -1.56176841663436    7.22761727757662    3.60306180651498
H        -2.09933474895445    7.90790424525733    2.95939098107469
C        -2.10933677306959    6.00204452903533    3.93161710472468
H        -3.08477793321967    5.74181979026032    3.54922965208110
C        -1.42645027822267    5.10052367940393    4.73265762494909
C         1.69488566736221    7.17373545437143    5.54405036976961
H         1.97532894375191    6.44145029110556    6.31290219477927
C         1.56640441432824    8.54581673907388    6.21244943791586
H         2.46278757495854    8.76434953911808    6.78954276894984
H         0.70879678560391    8.56559479313302    6.87868906422220
H         1.44448096669222    9.33082864727772    5.47076796177538
C         2.80654275537676    7.23418429712214    4.49224830213965
H         2.51880581188085    7.88748263080024    3.67116617045136
H         3.02286523183518    6.25032855537602    4.08557852536730
H         3.71977303295461    7.62484504147225    4.93747560729086
C        -2.06359851143573    3.77048644655231    5.07412717189704
H        -1.31956129802979    3.15752705992560    5.59252901744661
C        -2.55125873751753    3.01315472254291    3.83428672904476
H        -3.38946612758265    3.52754090535081    3.37105541804954
H        -2.88624759235588    2.01702795537932    4.11852007898212
H        -1.76662226852535    2.90989501775187    3.08849516823334
C        -3.24067892254457    3.98353537315010    6.02800857810172
H        -2.89441063997678    4.47615787308564    6.93203435141677
H        -3.68848116374156    3.02799950394171    6.29440053570487
H        -4.00179452853693    4.60636800710016    5.56463482066209
C         0.79055937558285    3.99276102312740    9.97189699672212
C         1.67952151704520    4.83188508083557   10.68058475776256
C         1.38998030847853    5.16057283364773   11.99432734911053
H         2.05181595606342    5.81228150582549   12.54291213132635
C         0.25957427063310    4.66376658182455   12.61852267910335
H         0.05545846009590    4.91981957594408   13.64725558534454
C        -0.61649819022693    3.85376750342419   11.92020247979486
H        -1.50257336535246    3.48699587288320   12.41502739681704
C        -0.38317224548495    3.51721344965801   10.59560825872567
C         2.90082185295603    5.39267036843772    9.98731100690962
H         3.10657785777916    4.77919249526353    9.10284438653209
C         2.59028938644802    6.81175133382611    9.50430803988428
H         1.73645456662259    6.78949519572588    8.82083987954372
H         3.44858027122013    7.23303477177584    8.98545878873551
H         2.34114753349887    7.45346791267507   10.34599837391277
C         4.14929737643320    5.39135168933057   10.87181371338331
H         5.02187907156931    5.65299666130059   10.27648991117055
H         4.31811502376323    4.41127166272409   11.31388336637097
H         4.06416758274559    6.11888750922764   11.67468704276199
C        -1.38081821661723    2.66670496624475    9.84210189540520
H        -1.05319238900476    2.60069984007019    8.79759935727858
C        -2.76254332271271    3.32465135774621    9.85847227220633
H        -3.17781391080976    3.33797377634749   10.86291767529733
H        -3.44440733393824    2.77336443777031    9.21527819721665
H        -2.69206786679406    4.34766514957652    9.49939532292941
C        -1.47790347055427    1.25360553510020   10.42504631519754
H        -0.52340209033887    0.73524870719293   10.37560184931641
H        -2.20954103827211    0.67266555604342    9.86750038412839
H        -1.79097418347812    1.28819883372327   11.46607431019997

