53
CSD_code = COGRAR | q = 0 | S = 0 | Stoichiometry = C24H25O3Re | MND = 8
Re       -0.47965093716508    2.25066896938510    6.45762206894927
O         0.81724232593392    2.73067854819013    7.92703559343152
O        -0.27416490009023    4.20354069816670    6.86097659076550
O        -1.88953551162180    1.58148059509508    7.06700886655010
C         0.68856090151758    4.03592387173542    7.75898663738190
C         1.47118751742214    5.04587871741363    8.24247415374321
C         1.17738541288867    6.38954037568756    7.70954520451015
C        -0.11645441700893    6.90379028524806    7.72530207010023
C        -0.38621020352459    8.14162817322165    7.17088739802776
C         0.62897925378309    8.88562485955570    6.59307518048942
C         1.91928291645849    8.38197052330564    6.56986692005718
C         2.19171090604379    7.14404055189899    7.12068453135701
C         2.56064450775424    4.85714818413591    9.18555845506343
C         3.06119587718017    3.59148144467031    9.51037777531448
C         4.10231170329159    3.44632296955880   10.40526607947374
C         4.67088403312483    4.55560575689991   11.00961263420584
C         4.16985110550124    5.81456750277262   10.72037954334376
C         3.12973050721880    5.96541575265125    9.82595795986735
C         1.05782621365786    3.14092184436285    4.46903318496647
C        -0.21926638049390    2.53870852072505    4.13556478059432
C        -0.16499029329988    1.14280983121117    4.49637978371721
C         1.06981964462910    0.96219419054013    5.22385262107379
C         1.83421253467524    2.18991665928184    5.12556899618597
C         1.39139755613196    4.56415875143066    4.18536328719899
C        -1.23205941863254    3.18448382619011    3.24879203802057
C        -1.05046954469321    0.05219694436709    3.96855375642755
C         1.64558701506171   -0.33949010606392    5.67448338407640
C         3.21367971431226    2.34498279261350    5.66854146585735
H        -0.90823781275351    6.32683883312602    8.17777585372895
H        -1.39429643927357    8.52984596742706    7.19245459604907
H         0.41674561496494    9.85329105528109    6.16216872870443
H         2.71583293128998    8.95488185513748    6.11641304675093
H         3.19690835714593    6.74698014420276    7.09036684417379
H         2.61337822792650    2.71656856778983    9.06735088411318
H         4.47292745842058    2.45748839922910   10.63632661200707
H         5.48674060959367    4.43954364913521   11.70782990244468
H         4.59042103232993    6.68620831908345   11.20155818254133
H         2.73832549282798    6.95221398122270    9.62847768903770
H         1.10214781770348    4.83305611989542    3.17074934718263
H         0.84517044843135    5.21162641480168    4.87688665861562
H         2.45349759664643    4.75635500540126    4.31473635118801
H        -1.40400531479216    4.21179470352585    3.56193283962144
H        -0.87532831362208    3.19437870894187    2.21734527645867
H        -2.17695559795800    2.64930062263329    3.28373712601331
H        -1.08513249224496   -0.78870286458069    4.65643320509595
H        -2.06495335847990    0.41248699055933    3.81871922733723
H        -0.66054382759484   -0.29767472143098    3.01126509354021
H         2.22148885710285   -0.20224649538671    6.58676966605606
H         0.86108466079010   -1.06620075148692    5.86669120664508
H         2.31005459223675   -0.73996018308060    4.90671246149216
H         3.19098113785280    2.33513909617281    6.75934551473569
H         3.84826099198146    1.52374893011738    5.33672488081871
H         3.65759928940963    3.28534661798721    5.35207784486373

