47
CSD_code = COGSUN | q = 0 | S = 0 | Stoichiometry = C18H27ClOs | MND = 10
Os        8.74870342738089    4.48403625917515    4.65116559299691
Cl        8.47769584607624    6.84034705094850    4.71132433930678
C        10.31244783380014    4.98248321499196    3.24750142302677
H        11.11733889209987    5.52862202285259    3.74349914029262
C        10.28261663307272    3.58059938616735    3.41088711761163
H        11.06669687751429    3.15496433590451    4.03503628248939
C         9.81931745986528    2.64665758653729    2.30461523476616
H        10.03034577289656    3.10697187878486    1.33880478683743
H        10.39404594101949    1.72016146761681    2.35309763017608
C         8.32272054720554    2.32287900530741    2.43258878502988
H         8.20233200981319    1.37980192947314    2.96756028404592
H         7.86849545056396    2.19232055036789    1.44472735426815
C         7.56981912493727    3.40004464342543    3.18802306073965
H         6.64288565302677    3.03361351977843    3.62852720209399
C         7.58893799405786    4.75684461623294    2.81293063240838
H         6.69226667057172    5.33865808037754    3.02641253608532
C         8.37878051941171    5.25916376734989    1.61462922740075
H         7.86533402437816    6.12319474504608    1.19282037708919
H         8.39476207789826    4.48043346036658    0.84992583171638
C         9.81482906925515    5.67622120604334    1.99460631578449
H        10.50444390720528    5.47760614522794    1.16772867065574
H         9.82781345481389    6.74924417445371    2.18743260410182
C         9.15047258053664    4.80483726821727    6.94390610819369
C         9.80891102526894    3.61737761504590    6.55942874328414
C         8.81080959889711    2.68618485100036    6.10798665959896
C         7.52338599468994    3.27829295731953    6.33525137825611
C         7.72670061583640    4.59752777493290    6.79151753016904
C         9.75441362924669    5.98435114709185    7.63450890088207
H         9.42348844748858    6.01045155575931    8.67432913291277
H         9.43591972412760    6.91065556608547    7.15638224500268
H        10.84054558341272    5.93743507465643    7.61457076507735
C        11.25817701325341    3.31093777345345    6.79089325622869
H        11.42768615480473    3.15338245327294    7.85806346622503
H        11.89810348282935    4.13114279749923    6.46827531008543
H        11.56088726524095    2.40722953387160    6.26765054824607
C         9.05954780114003    1.22890284383502    5.86554400627286
H         9.19960345080368    0.71430547581541    6.81867361407328
H         9.95267599440780    1.07257116663027    5.26395909105491
H         8.21894452079149    0.76563130435055    5.35487542126283
C         6.20549252499185    2.56948395493471    6.27746734827857
H         5.94568184153161    2.21266783606477    7.27646539010376
H         6.24068864865493    1.70794592876257    5.61446679806271
H         5.41023366581838    3.23305541062780    5.94227838831379
C         6.69122355860935    5.55614750626424    7.28362536478809
H         6.72937209920451    5.61602989189553    8.37303820991634
H         5.69172880683573    5.24576235462765    6.98829944629317
H         6.87987678471323    6.55252091155332    6.88439844849375

