46
CSD_code = COGTOJ | q = 0 | S = 0 | Stoichiometry = C18H18N3O6V | MND = 6
V         0.05917666899881    6.36468668122325    4.80120992360461
N         0.49823737803779    4.46473284119597    4.40005824040475
N         0.71332908099769    4.18612553331021    3.12207689811696
N         1.40939521209209    8.67345130509212    4.48079823375603
O         0.46378796639950    5.98344982211958    6.41105721302835
O         0.54285661987049    6.41388692944805    2.97404723974681
O         1.23026046199378    2.90087383971160    0.96792737691087
O         2.49348198071542    6.74003559894469    4.73320420752962
O         0.24101970771831    8.09060842055630    4.79192354159327
O        -1.43138653119855    6.07748615020770    4.68705863630132
C         0.19509956435358    3.66347316759697    6.64270253528593
C         0.23778393405472    4.97289776588309    7.19318541462443
C         0.07192778403772    5.12305140823977    8.57884427688670
H         0.10342286953943    6.12056791730610    8.99301235318961
C        -0.13803858074690    4.02578627371649    9.38167597885012
H        -0.27274069773737    4.16344022331110   10.44499123969400
C        -0.17770322973224    2.73041396284485    8.85365007760724
C        -0.00360809272571    2.56813059937832    7.49574835505728
H        -0.02935404649997    1.57780429459404    7.06328356606784
C        -0.40474562313480    1.56022143889498    9.76270368414202
H        -0.39081820303286    0.62731366814395    9.20610693024318
H        -1.36743990172427    1.65161221333281   10.26364116618733
H         0.36675686821534    1.51990559793594   10.53034238334283
C         0.40396396878624    3.48833257430478    5.24235842348960
H         0.49527635683667    2.47586007625651    4.84704808207399
C         0.69377101981078    5.28006005307816    2.40097482686711
C         0.84340323969465    5.22618361321032    0.94167355316976
C         1.10547979478748    4.02844644871299    0.24334448879125
C         1.22638303858243    4.08116937599862   -1.14496746579168
H         1.42545826438108    3.18304593780772   -1.70801249973139
C         1.09126358610599    5.27727328881896   -1.82654801039911
H         1.18874627259049    5.28543815879775   -2.90219575423010
C         0.83198100328579    6.45298808403273   -1.14272393789298
H         0.72302207956619    7.38361935851993   -1.67769751561190
C         0.71020706364588    6.41774273830288    0.23132635595741
H         0.49676376772612    7.31577828143911    0.79330821855234
C         1.47171570607541    1.68110960602229    0.30694049098865
H         0.66146905540018    1.42750801553417   -0.38421879568582
H         1.51886818776850    0.93091329197842    1.09431807507572
H         2.42293224883970    1.69417466510175   -0.23549922773828
C         3.78647931581531    8.66573821973779    4.05538047518308
H         4.64772681785586    8.05919927088115    4.32085734160776
H         3.84891314523538    9.62937089631876    4.55436595907116
H         3.79272418668062    8.82502917048956    2.97841419374838
C         2.52713026396010    7.92939794691890    4.44741186296130
H         1.35222042607818    9.64656527475111    4.19259138737324

