90
CSD_code = COGVUQ | q = 0 | S = 0 | Stoichiometry = C34H36BF3N6O6P2RuS | MND = 6
Ru        2.99893793020717    6.55733278500437    3.31015382713377
S         1.07444931383205    8.55016708838952    5.32033289285207
P         4.87308387737215    7.95239837234613    3.38694906417524
P         1.81179329939753    8.08095949051040    2.12750395110767
F         0.17244120368957    6.55051823803999    6.83812729673107
F         1.60332581151753    7.81799722007045    7.83506368349448
F        -0.43224123372699    8.48173505290090    7.58132638443465
O         2.20206250326359    8.68482961802798    0.64957701280099
O         1.85410287730728    9.44488464646220    2.98458830221511
O         0.24549511061968    7.82010875074627    1.86577098260975
O         2.11815607679070    7.57225337197083    5.02206645723302
O        -0.13643759808622    8.47337897554643    4.55215648077764
O         1.54023733892826    9.86069425811738    5.66918950252427
N         3.63463864711365    5.44025316023077    1.74945679325175
N         3.63987535557211    4.10874594139789    1.83824191119552
N         1.42485264755780    5.24851393632000    3.40055641552063
N         1.63581908884483    3.93594500861528    3.25423005066068
N         3.83044840346779    5.23146099944212    4.58713490746984
N         3.81866366557083    3.92361338144265    4.31545534362995
C         4.04332325760259    5.77107381222513    0.53121602692339
H         4.09053699402012    6.79930831271716    0.22692280461429
C         4.33260937700417    4.61406305758364   -0.19184018874271
H         4.68709244976274    4.54596914172919   -1.19922858336954
C         4.05938977459052    3.58070379353677    0.67788581534683
H         4.13431972196330    2.52095010519395    0.54455417404651
C         0.14881040101576    5.43319944662910    3.69214008655454
H        -0.25188578746949    6.41276531643176    3.86515748046411
C        -0.49797898324154    4.19548841537131    3.73017950316247
H        -1.53106554904200    4.00995481163536    3.93852317437415
C         0.48523603125414    3.27296083245649    3.44845957184517
H         0.44239241215866    2.20499352527620    3.37519954795910
C         4.31041147131473    5.39403701728861    5.80979730247679
H         4.39752936502653    6.36759206460139    6.25248210671860
C         4.63357719253052    4.14780137623536    6.35011921541725
H         5.04519851266082    3.94668816191538    7.31720797762138
C         4.30017800258784    3.24180992864809    5.36772017573778
H         4.37379679358939    2.17349819252641    5.34962111672438
C         4.77630627396867    9.59200493272219    2.57859871501533
C         4.85979676380853    9.63588600836315    1.18752351858565
H         5.04332977208117    8.72394762290933    0.63748375154821
C         4.72796075653251   10.83275298710655    0.50948585062086
H         4.80551774430567   10.85111684985731   -0.56847149375467
C         4.49630164536540   12.00573202015658    1.21109631636110
H         4.38507116307480   12.94219018627856    0.68304584514451
C         4.40851546681361   11.96992878555958    2.59243412393824
H         4.22922549279112   12.88042952923860    3.14601877272741
C         4.54974134399681   10.77308664025995    3.27554163591413
H         4.47197466888293   10.76554928027253    4.35103771602599
C         5.52039237489986    8.38255963247755    5.04323187033676
C         4.64912603991195    8.98123740956044    5.95454557280014
H         3.62600469196987    9.18495968892201    5.67393820300731
C         5.08022452656846    9.28564286094528    7.23387329175302
H         4.39142843245883    9.74341947608498    7.92755696676964
C         6.37750899248097    8.99165466441969    7.62192438474604
H         6.71134576651504    9.22433399349527    8.62245215068595
C         7.24276869470442    8.38823438123145    6.72485895794336
H         8.25333649999674    8.14951322227732    7.02370746019434
C         6.81955099579609    8.08094485810153    5.44321865403216
H         7.50330611600185    7.60094084789977    4.75861426950403
C         6.39163415182987    7.28095751675224    2.60741368914186
C         7.38828355000022    8.09559862734974    2.07670257299832
H         7.27688392268711    9.16980718732623    2.10362240224729
C         8.52537095667063    7.53707511131667    1.52105772305912
H         9.29049848393666    8.17904127436011    1.10936614337903
C         8.68811764596280    6.16156414869021    1.49537881685081
H         9.57443534544255    5.72942031560104    1.05512619670183
C         7.71539007733419    5.34464046871080    2.04685576002214
H         7.84273023186310    4.27207674159050    2.04455344315010
C         6.57809190793270    5.90221046180949    2.60263744954863
H         5.82768505833911    5.26551510150365    3.04970344238573
C         1.38718016926174    9.76647319517138    0.19992352979518
H         0.89635732754429    9.45143278106847   -0.72953713639468
H         2.06305269304453   10.60109274291705   -0.01779658474691
C         1.06056916072706   10.54133948817831    2.53464186884985
H         1.74550337534413   11.38417937922194    2.39463965615118
H         0.34980917595463   10.77278559224125    3.33518551787987
C        -0.54211209078977    8.96052137172690    1.53399102297314
H        -1.20086263233518    9.16380421209908    2.38546002298543
H        -1.14354928003903    8.68857914838643    0.65824655084785
C         0.33333128517623   10.18562561773449    1.23549069492462
C        -0.55347970612086   11.33080346071449    0.73065315392104
H        -1.03947215040210   11.00356026574818   -0.19193790639725
H        -1.33582381836523   11.49957243089981    1.47332484201274
C         0.16745538541387   12.64930268175464    0.46808676069270
H         0.60835779603502   13.04254111934542    1.37888137810571
H        -0.54701281691060   13.37958621732092    0.09611372012705
H         0.94861640766781   12.53190641209981   -0.27757752455732
C         0.56718912794867    7.82132570962097    6.98648146428420
B         3.06606530330015    3.41002824457052    3.07931091745443
H         3.11209397602647    2.23471948840801    2.98548530999463

