87
CSD_code = COGWAX | q = 0 | S = 0 | Stoichiometry = C68H15O3Re | MND = 8
Re        6.39969703933481    4.38664398109308    9.60918327360066
O         3.48416708211080    5.37006467152409    9.91351246745844
O         7.37033012235701    6.44666916850648   11.69855242900806
O         5.98035735153590    2.14488292914192   11.69367585555179
C         6.31338067520326    4.29971722462351    7.22680642567851
C         7.30596580264296    5.25836224106855    7.60254062345661
C         8.36354701608344    4.55500317965108    8.26874244443591
C         8.00514396907094    3.17786304323472    8.33780602334035
C         6.72734967872126    3.01909029145918    7.70267853800457
C         5.32558693378766    4.50365708714658    6.11225569564251
C         7.50299162901265    6.57075666957503    6.89078577012965
C         9.77716129633374    5.05906199471883    8.36479403910847
C         9.00062765787783    2.06236284468906    8.50569445186978
C         6.24669927086237    1.71860132520623    7.11596327958588
C         5.94314212370435    5.51504127701200    5.15190754926040
C         6.90220352779679    6.42569063582878    5.49515478400244
C         8.98626341345764    6.68493834631318    6.54954706161295
C         9.98796008719579    6.01944538751742    7.19842780493109
C        10.69038298079232    3.90739101394553    7.95616877093537
C        10.34807797033865    2.58645432027071    8.01826463311175
C         8.69369809790359    1.02244100687565    7.43229040210863
C         7.48110003438803    0.87126606779319    6.82048459785163
C         5.75954846548890    2.01334542532542    5.69996474097166
C         5.35384160010530    3.24061472526722    5.25753782798710
C         5.90696213211437    4.99038856151960    3.82517125839545
C         7.85812159007299    6.84063999713131    4.51935114506775
C         9.13350014195246    6.99943838471773    5.16464440179770
C        11.16751285045544    5.64749363267148    6.48587132719204
C        11.59718325369865    4.35548350352656    6.94932493536551
C        10.90148474048381    1.66941023474654    7.07498752130770
C         9.88935066877640    0.71251164136763    6.71654819597797
C         7.42625901358586    0.40502703683576    5.47210673843447
C         6.37292626626046    1.10403037711208    4.78638959219640
C         5.54658080125678    3.59937826228223    3.88976101704129
C         6.79647432279448    5.42846952015619    2.85013762068990
C         7.80085546323672    6.38047461820701    3.20779129003487
C        10.30006164503006    6.69245877875781    4.47191463209055
C        11.34725575866178    5.99684448276713    5.15186723392446
C        12.18775189783337    3.46405515244138    6.05990796601828
C        11.82963225415712    2.08172359727920    6.12457144398170
C         9.84740102898886    0.20489966013073    5.42243947299891
C         8.57952400317662    0.04681031093993    4.78192608346998
C         6.51604601041438    1.41804890700185    3.43877415871750
C         6.09052469266090    2.70212836705355    2.97703434033173
C         7.37276243426390    4.49525739677126    1.91530197356810
C         9.00908886164369    6.04641494375209    2.49685892685984
C        10.23889193519348    6.20006084851024    3.11887284255809
C        11.94429305739081    5.06651579483966    4.22721118255220
C        12.35758275104058    3.82028333343316    4.67387023918860
C        11.77439217442099    1.56841583118475    4.77910933444793
C        10.79926764017044    0.64475424406359    4.43377665346010
C         8.73390651241339    0.38689480665078    3.38999541662037
C         7.71867221678949    1.06184225028591    2.72911564385453
C         7.02551619398823    3.15396311089164    1.97776964539644
C         8.74513186527541    4.87586950171571    1.69969016178097
C        11.25444248898914    5.18943376733057    2.96870928878891
C        12.09743144008646    2.64667916572251    3.88016790800866
C        10.10812968339039    0.76186989530968    3.17539163316001
C         8.03665820238272    2.13921282070028    1.82720498642290
C         9.72298363340285    3.89794000379222    1.55560330549328
C        11.00087397429386    4.05766658603205    2.20179360169728
C        11.42996631099106    2.76285030527474    2.66598787823713
C        10.41712603870315    1.80294015539444    2.30702121781645
C         9.36224444663065    2.50445173360704    1.62058259249618
C         3.91145338134668    4.89057873748981    6.55269072920942
H         3.27079543315012    4.99752064779776    5.67975829574154
H         3.92852632129775    5.83621838980962    7.09147866403144
H         3.49371352997219    4.12296645745343    7.20194092561010
C         6.96487367198836    7.78337952865114    7.65613251870354
H         5.89685164379754    7.67050709665199    7.83605631908809
H         7.13166432290549    8.69190952296771    7.08143634938778
H         7.46980875250725    7.87626071554689    8.61637886290684
C        10.15812084135453    5.67008413579111    9.71608191477049
H        11.20855110282888    5.95360013888046    9.70967992160170
H         9.99259617844337    4.95099569044569   10.51692564871650
H         9.55894253014661    6.55720275714219    9.91193953525293
C         9.06636834910417    1.46667547825948    9.91491562414142
H         8.11508231374171    1.00641340624764   10.17512954767278
H         9.28948772214279    2.24446205974258   10.64377307908243
H         9.84489606640564    0.70795770215519    9.96001737327849
C         5.20574857845166    0.98942841434309    7.97058812385086
H         4.88905083187338    0.07537631020908    7.47281810382064
H         4.33587317782387    1.62537471841592    8.12786716315305
H         5.62796069599227    0.73276917148520    8.94072666710930
C         4.56739093021554    5.00431405535625    9.82461256647631
C         6.98824094172261    5.66764041303080   10.94932819973827
C         6.11920845960924    3.00586807243158   10.94972956956997

