67
CSD_code = COGXIG | q = 0 | S = 0 | Stoichiometry = C32H22N6O6Ru | MND = 6
Ru       16.36751283497298   10.71905643292589   11.93138711665475
O        13.10232469856853   10.24955534950538   14.28819214412327
O        15.85966822525998   11.60068601951455    8.00750841795736
O        17.62348133495948   13.04095601152368   12.97098165663215
O        15.75661317563577    8.94034061886427   11.24676888749556
O        17.07112778538045    7.22155632890485    7.08330674276798
O        18.35374755086734    5.79358554310469    2.79493966140076
N        16.56908891075780    9.60629594730225   13.72054878632515
N        14.57073071257437   10.96384270467847   12.65224729593175
N        15.62060139281202   11.50265379548618   10.30458826297528
N        18.00352222154967   10.38155524827191   10.58936873540642
N        17.05832222835014   12.11024714260838   12.55428508209019
N        14.52034899612724    7.79822451812993    6.04087929880722
C        17.58043684790830    8.89891162066034   14.21021070989934
H        18.53086545955871    8.99698892383366   13.70088948383666
C        17.45820904399868    8.08013285702574   15.31975396799876
H        18.31199424116964    7.52783964975266   15.67832377525648
C        16.22441704913436    7.98651771793234   15.94935227828483
H        16.09303205744645    7.35423135435593   16.81412364301550
C        15.16985252025323    8.72064690991024   15.44120868943259
H        14.18057657227686    8.69885279528816   15.87251609832770
C        15.37075215642443    9.52339424216236   14.32237324077401
C        14.19953353499369   10.29687464536401   13.75207750867562
C        13.74236883925711   11.64293279775645   11.76016606667837
C        12.42597426429194   12.00620394300710   12.01761324321185
H        12.00228661310610   11.77507788542522   12.98198040927820
C        11.66153909525452   12.64459854910818   11.05163328424179
C        12.21601816258132   12.91813233479970    9.79515141283610
C        13.52772266794871   12.55402377051836    9.52672980694653
H        13.95863417978394   12.74682028296236    8.55748292581867
C        14.30484193044231   11.92621798374782   10.49187101088464
C        16.24764255461124   11.32780476543110    9.13406292561875
C        17.60484247440455   10.68976490805481    9.34322901212956
C        18.39570991929839   10.41480184355599    8.23073808689220
H        18.00981208523154   10.68919718560881    7.26087071883539
C        19.61862908312903    9.79742057608390    8.40222384452622
H        20.24300299755856    9.56035474249950    7.55477996869377
C        20.02442643630142    9.48669878282167    9.69420916082040
H        20.97247125763587    9.00839350720490    9.88145535693205
C        19.18729095889990    9.79836528837550   10.75079288491887
H        19.48054091390922    9.57806788049891   11.76965295802621
C        10.24825764031031   13.02983526578097   11.36164422389459
H         9.98860756268377   12.74677379788988   12.37778008670462
H         9.55781067720517   12.53901291527879   10.67650029534076
H        10.11182187489621   14.10522356891696   11.25292725067086
C        11.40517633798831   13.59825773015519    8.73622996205526
H        11.98568931288044   13.71302968461753    7.82533948752179
H        11.08498524507272   14.58386496743013    9.07292633048892
H        10.50994866812217   13.02079228139545    8.50840324083471
C        13.84948034531411    8.58897343270098    8.19772823301879
H        12.87518537460300    8.80021287729165    7.78737711942742
C        14.14676765670234    8.86505420466317    9.50168134640742
H        13.40870256140734    9.30418610091539   10.15860674890562
C        15.44230647293762    8.61363081170258   10.02232860155544
C        16.39306244871239    8.00162091637783    9.19009417377523
H        17.37381963169645    7.75835739049644    9.57477160671259
C        16.09645020402376    7.74320174121502    7.86793557860556
C        14.81683440445370    8.03878597748806    7.33900793462365
C        15.45468858883423    7.30445803770549    5.27722021801635
C        16.78735520228265    6.99828462504525    5.76478700573960
C        17.74769649711916    6.49978614672236    4.95289652897484
H        18.73072355481829    6.27841223286244    5.33984747762122
C        17.49630113688294    6.23958529095945    3.55045008402190
C        16.13770807276943    6.54574163574104    3.08398346191793
H        15.94103131868614    6.34937689259971    2.04007558171526
C        15.18782939738694    7.04235532382813    3.89377975502911
H        14.19134582756433    7.26926274565236    3.54560310506108

