47
CSD_code = COGYAZ | q = 0 | S = 0 | Stoichiometry = C20H17N5O4Ru | MND = 6
Ru        4.66279035232040    3.08435987695601    2.82419153116093
O         5.83364638055097    3.19509315235681    6.71181948251692
O         6.93609470279214    4.80387663443378   -0.06888144418337
O         2.34324226408206    4.73116361930516    2.83819313439713
O         6.02317038051915    1.68754685834082    2.71854469666536
H         6.94077945645263    1.87342071866008    2.94073888222337
N         3.76220087167268    1.72692012111691    4.19689781847406
N         5.52379766199727    3.68282277602353    4.47290448605306
N         5.93553346174890    4.28023177934353    1.94888332586663
N         4.32680253716578    2.52211571581361    0.80029459267919
N         3.34216868235850    4.12104936542432    2.85366010837079
C         2.91125075787699    0.72425649207822    4.02339664731343
H         2.46990312401244    0.63056380965125    3.03948260072295
C         2.57685069806799   -0.16460007541417    5.03122528354196
H         1.87787050525865   -0.96237684561133    4.83677591346207
C         3.15731598926009   -0.00574501756649    6.28171376933656
H         2.92176403390344   -0.68173380319562    7.08968072235010
C         4.04381443887147    1.03782751248869    6.46594278320296
H         4.53680266825163    1.22637820736753    7.40738370785092
C         4.32920699972754    1.89016136776782    5.40347359652784
C         5.32514345072822    3.01266480338544    5.61328993257290
C         6.45535451251353    4.69142612067574    4.23452732666901
C         7.17828629391730    5.35663699765291    5.21750828862199
H         7.01172866850582    5.09467700852868    6.25034860447120
C         8.10193220499935    6.33632027472041    4.88320114616882
C         8.31866124103423    6.65727591874792    3.53788168413075
C         7.60955407564101    5.99220653811605    2.54817472146219
H         7.77780382142357    6.22355351645262    1.50840758280652
C         6.67618908284188    5.01495188476240    2.87251152363054
C         6.13891542884341    4.19170399618413    0.62985751261717
C         5.21861629789082    3.15423610688940    0.01977433915423
C         5.34117614237690    2.86065664666443   -1.33504906711840
H         6.07990809009501    3.40626921530447   -1.90218153482070
C         4.53098981263911    1.89304171192713   -1.89737706134204
H         4.60970016428850    1.64496476917914   -2.94501892784977
C         3.61354664257634    1.24594191469411   -1.08157908743391
H         2.95855193937346    0.48359523181003   -1.47225651067712
C         3.55016950898606    1.59398724852509    0.25727346874815
H         2.84065361702477    1.11162915473336    0.91721429275690
C         8.85977777500215    7.04022484486512    5.96673714222749
H         8.57045000506423    6.66152394698139    6.94302952338633
H         8.66541322895089    8.11202481799730    5.93659595622598
H         9.93246725188160    6.89565331414364    5.84131920954041
C         9.31119288502593    7.71211193238521    3.15588364908184
H         9.35665250004998    7.82022166843885    2.07586507049638
H        10.30476320470416    7.45566893312879    3.52231075757288
H         9.03659618673138    8.67249921776598    3.59132881836669

