30
CSD_code = COHBAC | q = 0 | S = 0 | Stoichiometry = C10H18PRh | MND = 8
Rh        2.91151359623099    0.56165525740557    2.81738578951387
P         1.37350751017783   -1.06669791262075    2.91250033641387
C         3.59725837826622    0.22404904482229    4.77743448272896
C         2.63599932360219    1.25836766089997    4.78216769635120
C         2.02723494968879   -2.78367876893970    2.79362920213302
C         0.23917707389860   -1.26857860701851    4.34729830461446
C         0.14507210207793   -1.10411495920967    1.54319388013605
C         4.71196900967341    0.70857395493225    1.36806162878190
C         4.48351294315638    1.94410836720172    2.03218640048136
C         3.25147339538857    2.49473621206689    1.55821317622479
C         2.64611456507901    1.53177256647694    0.75110567323747
C         3.53985552245561    0.40497071254764    0.65810826937869
H         4.65052183360437    0.48063846026565    4.86801187324735
H         3.34483692191122   -0.73330087723665    5.22462703485886
H         1.66603066663639    1.07890387417508    5.23409302122751
H         2.97531870824737    2.28819285958697    4.87341986313985
H         2.61668723233201   -2.87344129574144    1.88315917191999
H         2.67869635140496   -2.97451404289370    3.64404329593651
H         1.21851018777608   -3.51302330883314    2.78049086378298
H        -0.37205505974126   -0.37396103819407    4.44713730916700
H        -0.40535954629905   -2.13449060148136    4.20295078292807
H         0.82105045378294   -1.39822295670618    5.25703525560381
H        -0.52501913635474   -1.95695179420601    1.64450660009018
H         0.67103504292238   -1.16575203621511    0.59254954388357
H        -0.43292329449391   -0.18192653808388    1.56107424260730
H         5.62441473911008    0.13324357536072    1.38501001685852
H         5.23122554403477    2.49953102967548    2.58158187624845
H         2.89254540699840    3.49328644053953    1.75344599270939
H         1.74530303546942    1.65602344111605    0.16830535359181
H         3.41169254294079   -0.42169871988606   -0.02762693786719

