75
CSD_code = COHDOT | q = 0 | S = 0 | Stoichiometry = C38H33ClP2Pt | MND = 4
Pt        3.92196871834331    6.08589729941955    2.98715314287783
Cl        1.87238583567619    5.25976382442893    2.45862444567772
P         5.75963470448987    7.45754457003110    3.28850499867007
P         4.63796801844504    4.28844197657820    4.30332828890535
C         4.84903602435260    8.52402298693578    2.14067640480354
C         3.67368291130907    7.78305599051747    1.90180286729334
C         2.71835145148779    8.33376689824054    1.06390268201330
C         2.92778589010924    9.58641430367688    0.48773049047984
C         4.09874747564937   10.29002951893696    0.75252762509829
C         5.07555390402887    9.77156117167548    1.58647868366433
C         1.88180034938808   10.15996564524333   -0.42028607946715
C         7.47556568328695    7.32303537218395    2.71657554487592
C         7.73542690983978    7.43347910854978    1.35312822849145
C         9.01170119307220    7.21570237883465    0.86970849222823
C        10.03397600683170    6.86969305310799    1.73868020805029
C         9.77711209733748    6.74183841236563    3.09420312045727
C         8.50342796311391    6.96245091252150    3.58323246464257
C         5.76124785480065    8.36668632833888    4.85696516226225
C         4.59188945528577    8.24126887756226    5.60249844779780
C         4.46071454469477    8.90191329616203    6.80703460776316
C         5.50136750122276    9.69020880103858    7.27392747341841
C         6.65903653963861    9.83041965857732    6.52627623956908
C         6.79318868868472    9.17580536735352    5.31426160013533
C         6.25476098036331    3.80281540496589    3.61883109758329
C         6.53768759086211    4.19527555982748    2.31385400928276
C         7.75746337660818    3.89725802998249    1.74188925427262
C         8.72418192538738    3.20197949034790    2.46087629931900
C         8.42383106171589    2.78380373929749    3.75175735979071
C         7.19973150449654    3.07047720215845    4.32675927889842
C        10.06005924384586    2.92277723967983    1.84524921371218
C         3.88304661338655    2.65233920742388    4.57128568950084
C         3.09944676699900    2.14167302047225    3.54140591705689
C         2.53661608583880    0.88401256513813    3.65852602977337
C         2.75525374168044    0.13153214559926    4.80060050313693
C         3.53567055988028    0.63840803977856    5.82753289834225
C         4.10163944568855    1.89507665813467    5.71736945561590
C         5.01015270214816    4.86282165119948    5.98636114012494
C         3.95627479225527    4.93626716288466    6.89562858259408
C         4.14741037764666    5.51021334509229    8.13755551387749
C         5.38558695426756    6.03204756021737    8.47852550883962
C         6.43192359722341    5.97673670886309    7.57362574190535
C         6.24514496574694    5.39978961978391    6.33079314892769
H         1.80161109687497    7.80096764700304    0.85079635745392
H         4.24646936936312   11.26154830826019    0.30044373481046
H         5.98451323595463   10.32181255381314    1.79107809868360
H         0.91126810856709   10.16053601365418    0.07316460016745
H         1.79391407402147    9.55248075958674   -1.32079214399209
H         2.12834383369037   11.17826455920269   -0.71160537548537
H         6.92905465646727    7.69221158488119    0.68032375743952
H         9.21061183943623    7.31216896715814   -0.18772404858974
H        11.03131964644848    6.70006850666077    1.35947741844668
H        10.57222335640778    6.46580910132311    3.77173998514835
H         8.30407566118507    6.86420705008404    4.64093789101161
H         3.78817082288523    7.61372183813468    5.21579047485675
H         3.55434277372935    8.80080249654864    7.38494441235376
H         5.40800952372400   10.20120772090762    8.22085101236454
H         7.46216097053539   10.45620728032822    6.88824373428986
H         7.69310263854679    9.29375467042099    4.72698168995993
H         5.78060243687812    4.74131874478884    1.74861439335604
H         7.97181494903394    4.21333773296999    0.73121671398548
H         9.15910130904340    2.22675753170387    4.31563792233762
H         6.98086527675830    2.73393982755540    5.33053154873549
H        10.59372991051242    3.85836239152722    1.67951218253119
H         9.94038478702276    2.43375576416785    0.87996759686108
H        10.66342539046514    2.28693202049524    2.48791594579050
H         2.91640776154551    2.74848039704223    2.66490012028184
H         1.92182671080614    0.49308785311851    2.86142390745329
H         2.31338411802944   -0.84965751425987    4.89515712716843
H         3.70268926423079    0.05174870739583    6.71963274569434
H         4.70168730639111    2.29147827769365    6.52507848164144
H         2.98794018592515    4.54284876919476    6.61399655265511
H         3.32851365051437    5.55881878606497    8.84036362767938
H         5.53322503061230    6.48614903346652    9.44711972922102
H         7.39496038698040    6.39121412983336    7.83544497930803
H         7.05869791031258    5.35558838620705    5.62027304420692

