78
CSD_code = COHFAH | q = 0 | S = 0 | Stoichiometry = C39H36P2Pt | MND = 4
Pt        3.90298833362936    6.00613574998153    3.06093589633571
P         5.91930476563243    7.27030645715842    3.37698699015606
P         4.63377421505540    4.21307285122809    4.33373016254261
C         5.03830161975421    8.31509132606645    2.17662178318687
C         3.79446900978879    7.69465622433931    1.94825572232701
C         2.91599314880721    8.33737817990055    1.08377119381909
C         3.25842355776334    9.54337051598295    0.48018133290647
C         4.49603350006042   10.12602066928909    0.74166441742663
C         5.39800736710634    9.52133665529653    1.59683516598916
C         2.30734478557585   10.21079315656171   -0.46914277677564
C         7.66752815430949    7.26755405937076    2.88335543025472
C         7.97598444599561    7.30046309466399    1.52549221421076
C         9.28103908286397    7.13949491655997    1.10120241832442
C        10.29022312368684    6.92311407529231    2.02552123689713
C         9.98805105673932    6.86634649921733    3.37638462900353
C         8.68413463162474    7.02969720816508    3.80471502428383
C         5.78657842721920    8.28467483267728    4.87782469217027
C         4.57607891817816    8.14464460394944    5.55261859598826
C         4.33386720776464    8.85995038000636    6.70736182017894
C         5.30351152806973    9.72149686574285    7.19684197415822
C         6.49970858451189    9.87968376862066    6.51698528353763
C         6.74478740648711    9.16860905050642    5.35522647845496
C         6.20553454676031    3.75358086145215    3.53769442085000
C         6.39860508809631    4.17756725766640    2.22604553194231
C         7.59130839267415    3.92652913374565    1.57967978100166
C         8.61905579861611    3.25106358727857    2.23027034018450
C         8.40500006527530    2.79599100058283    3.52559333355546
C         7.20721296774457    3.03291075326212    4.17486949326500
C         9.93059027357207    3.03851962012239    1.54016238674425
C         3.95119464556264    2.54849629535005    4.63746317971757
C         3.25272409435831    1.97560962124298    3.57862146548683
C         2.73971056984296    0.69773438342102    3.69258703642413
C         2.91964755949229   -0.01490277964101    4.86754490065534
C         3.61544665658771    0.55154060243747    5.92293418350154
C         4.13427092291222    1.82940487489219    5.81209285272884
C         5.10840652102788    4.79468823947361    5.98754355233533
C         4.10304582221311    4.90044904710297    6.94724848635758
C         4.36059222498256    5.50395904439977    8.16268370489243
C         5.61785704245309    6.02502589354245    8.42585412041087
C         6.61605588454712    5.93710331462762    7.47071155239913
C         6.36313414677134    5.32983582195286    6.25402651245594
C         1.96273849263301    5.45666456996146    2.64923133741816
H         1.94777954044249    7.90534580630105    0.86727033277617
H         4.74955743416840   11.06650999697019    0.27085309408866
H         6.36004762586907    9.97316864505691    1.80326238135747
H         1.28376012971259    9.89784625283474   -0.27723691096417
H         2.55662781217035    9.94170401369272   -1.49659190154886
H         2.36839195411041   11.29392479986648   -0.38241606174963
H         7.18285181453630    7.45653380284560    0.80647516906197
H         9.51328665166420    7.17771103609907    0.04638425962144
H        11.31105855478260    6.79672256946954    1.69427738109558
H        10.77277883290031    6.68928992070012    4.09821490737523
H         8.45245287893172    6.98191122695939    4.85975965530364
H         3.82301107052269    7.46176641343137    5.14842698334216
H         3.39571402457835    8.74515391951887    7.23009843754252
H         5.12404621976448   10.27614515494999    8.10635032119426
H         7.24691715957735   10.56427324240195    6.89296069654787
H         7.67549182369060    9.30362373563512    4.82200196774582
H         5.59246981216432    4.71466833845234    1.71906133745571
H         7.73871240343862    4.26670271469759    0.56478781447909
H         9.18870825423794    2.25288015627619    4.03533643011744
H         7.05327386940948    2.66978983182349    5.18209211241589
H        10.44575062778114    3.99300607995848    1.43003053050590
H        10.56794841006282    2.36440671646165    2.10675443728733
H         9.77784107601824    2.62586973546431    0.54448259633728
H         3.11595860158362    2.55062532046230    2.67126723288061
H         2.19641760337156    0.25661643118530    2.86974037178932
H         2.51606237910234   -1.01235076516786    4.96197133087642
H         3.75605203844936   -0.00616136850081    6.83781713177109
H         4.67480986242455    2.26806615412162    6.63944598831340
H         3.11739492868506    4.51176940000692    6.72372523764597
H         3.57838001470770    5.57938376321371    8.90408938157670
H         5.81672867323664    6.50613019877526    9.37201206769153
H         7.59342030831642    6.35197221619653    7.67274298745773
H         7.13906701932436    5.26496345812035    5.50333827486663
H         1.61689143008006    4.66764641856407    3.32537341088111
H         1.87841304071023    5.08252137584367    1.62305974119173
H         1.28216153277284    6.30620100378791    2.74865301403806

