86
CSD_code = COHHEP | q = 0 | S = 0 | Stoichiometry = C33H43ClNiO6P2 | MND = 4
Ni        7.44031842336754   21.54326223172512    2.86730493858157
Cl        9.38495457538489   22.31797903480627    2.90948444506582
P         5.33826001032750   21.22684705885469    2.31332200435404
P         6.72245315743274   22.59112608862278    4.69192102382959
O         5.56582076846979   21.70031294090674   -0.27502209424311
O         3.62972466422245   20.61765989684513   -0.99100872248717
O         3.08326984478076   20.07499947521792    1.21217143482738
O         8.59636487166796   24.33887326708415    5.27357168958289
O         8.53757023460656   24.14815254403318    7.60089916130619
O         6.76098652974701   22.63403475413120    7.44208000458919
C         4.27254586930894   21.77440234557513    3.70654092109360
C         4.90759004605883   22.36015985252327    4.81935614741669
C         4.15697607584497   22.63367424377156    5.95988808100432
H         4.64375331985079   22.98222476779959    6.85494796908658
C         2.79499506339422   22.39648253857766    5.99181930426281
H         2.23286364229919   22.61866176216469    6.88687013835689
C         2.16485292204712   21.85304653561540    4.88694106497459
H         1.10316531846779   21.65577054664908    4.90557427370178
C         2.90274740958877   21.52265982284610    3.76477781913327
H         2.40621279788257   21.03160284026516    2.94422019362226
C         4.91878522650430   22.31426937246242    0.83419563265167
C         5.01361151522406   20.48224447226239   -0.72780200842058
C         2.92248154245069   21.00836039915036    0.16377250391827
C         4.42475271095089   19.75122799468063    1.56749777389452
C         3.41910565272007   22.40318339516629    0.58210634455884
H         3.23301327289684   23.09129339567860   -0.24563541857596
H         2.89389258579542   22.75442028281839    1.47009616046938
C         5.20072150544387   19.36623769227682    0.30940370348196
H         6.25966629594840   19.23960204084701    0.53223243795403
H         4.79615514591912   18.44016978967168   -0.10402817114541
C         5.57529955487661   23.67479406204761    1.02169051944015
H         5.06759272858114   24.22452387029537    1.81117822001596
H         5.53737196499659   24.24496652368637    0.09620572916607
H         6.62547306737419   23.52066541596677    1.29398182000991
C         5.70678751776502   20.15087149975889   -2.04373391200111
H         6.75920439526688   19.96854596432851   -1.85480294853845
H         5.59710776432627   20.99097731086871   -2.72241882168363
H         5.24498493479948   19.27217316105103   -2.48128233333477
C         1.43788633216186   21.01415127042027   -0.18778437274779
H         0.86022332550815   21.36565289793645    0.66145817644087
H         1.13418145249985   20.00257579093825   -0.43857957661784
H         1.27442721482063   21.65989900446316   -1.04394944866341
C         4.37300521965366   18.60702564918440    2.57227800712073
H         5.38904862674997   18.30918619995864    2.82264469075442
H         3.84419633737621   17.75901072885049    2.14291518790717
H         3.85365387897129   18.92063965085162    3.47570512120934
C         7.18306769088201   24.36839716335249    5.14970485909873
C         9.11790510209362   23.66762976085154    6.39732611520231
C         7.13854530221563   23.98866452214141    7.59592134495887
C         7.34828505755405   21.94070601803592    6.34607289816796
C         6.56967508492999   24.85296340784309    6.45768475037039
H         6.89139517343508   25.88290459819076    6.63135462462788
H         5.48240744608831   24.82142358794411    6.42524356168324
C         8.85844820199720   22.15689886260018    6.32442473228762
H         9.31979489861427   21.68199747603270    7.19249315708289
H         9.29235063831158   21.75603125635988    5.40572487275070
C         6.87216689629595   25.29857971543599    3.98475618319522
H         5.80031202722801   25.31548424344313    3.79485698571142
H         7.40546283940687   24.94349935955862    3.10484518619084
H         7.21651664524173   26.30549594624197    4.20987985612610
C        10.60676410896747   23.98535571753369    6.42376374097024
H        11.04127362042106   23.65480621167356    5.48574037437278
H        11.07727694698110   23.48116779856821    7.26104148706477
H        10.73732731236705   25.05806061992848    6.52597078683714
C         6.62225178176623   24.42963949687974    8.96262689617213
H         5.53945054930917   24.35440592510598    8.99043913327786
H         6.93068727473358   25.45275430560006    9.14987022797759
H         7.04844990516614   23.78193396926224    9.72243547664711
C         6.98123447375026   20.46881980797602    6.48871632045988
H         7.37667287793410   19.92053794798251    5.63402840826895
H         5.89918929549972   20.35411705909803    6.52311183424840
H         7.40604015452797   20.06154879371020    7.40347493252976
C         8.18290161758284   20.24964054356106    1.72010727516510
C         8.70713993239948   20.30334923558448    0.42705071466928
C         9.15652738752795   19.11771261823722   -0.14606228260599
H         9.55984209009136   19.14634823270581   -1.14925855673207
C         9.11674494507314   17.91609158513729    0.53800654851420
H         9.47696942565627   17.01367112199447    0.06631476156165
C         8.63346160929572   17.87757746571788    1.83272065069229
H         8.61533350788049   16.95001918939808    2.38681952612048
C         8.17176330684745   19.04524165520075    2.42037491306336
H         7.79997665235151   19.00593992862272    3.44676189805920
C         8.80319477694873   21.59216002702467   -0.32924312832975
H         9.28424281897186   21.44443056781447   -1.29312122928089
H         9.38354392510252   22.30765989536530    0.25139620826422
H         7.81005138422572   22.00923397866601   -0.48528086079853

