59
CSD_code = COHJIT | q = 0 | S = 0 | Stoichiometry = C26H25N3O4Pt | MND = 4
Pt        7.37475087713329    8.86435368247690    5.85699641522798
O         9.18829562258750    7.79554205388724    5.42518733234355
O         9.04809042705259    3.41725285644200    9.92321019953388
O        10.95593131620692    3.13270109621276    8.98642142635947
O         5.66431277459395   12.98298944860083    3.16336168999241
N         7.60033046102782   10.25134095232202    4.48865363953667
N         7.15871985411187    7.29380514973217    7.07415371297743
N         9.88678157549618    3.71732608371230    9.08362364833638
C         8.60519054562632   10.17188781389278    3.61787134207804
H         9.34448629920133    9.40390162322085    3.79723389925202
C         8.69962283518496   11.03250535730487    2.54436054769605
H         9.52374174947270   10.95630064442582    1.85409750679114
C         7.71783361927207   11.99409241851224    2.36330886707895
H         7.78067124587771   12.66444045651604    1.52166388901002
C         6.66375671050241   12.08351371609577    3.26831206109010
C         6.62935878739409   11.17878560121761    4.35693335576954
C         5.66492571662789   11.14621845952587    5.45342775170478
C         4.66274370410239   12.09050338233739    5.66700611016908
H         4.48927014357588   12.87000375902306    4.94582990375759
C         3.89794948633010   12.03954541011088    6.81734513287754
H         3.12045578547703   12.77137956048215    6.97944867637083
C         4.15226890579585   11.07119056482004    7.77192289191020
H         3.58544210529725   11.05647807668084    8.69189227680145
C         5.13453589755445   10.11557984542112    7.55249602972290
H         5.31948914097367    9.39141954799831    8.33351788760874
C         5.88327274082350   10.09626593441767    6.38178415531245
C         6.06232151713581    6.90599599746254    7.70525750817036
H         5.16244335971298    7.47714031631982    7.52925692891239
C         6.04919211345204    5.80642649157927    8.56183399327796
H         5.12896208929495    5.52674160012483    9.04936721377039
C         7.20489057122029    5.10481789933376    8.79633130724839
H         7.21763995579977    4.28021926396779    9.48962349328191
C         8.38247548381153    5.45538241972740    8.10264627424053
C         9.63565640828688    4.78454723179182    8.19117322996694
C        10.68877119304757    5.17348148451181    7.36003139183089
H        11.61953999007990    4.63350111673329    7.45554155510293
C        10.57397051795927    6.18132531138866    6.43802078874808
H        11.39914119045509    6.43592380567989    5.79184613741350
C         9.37182294058199    6.90185314671776    6.30677635575113
C         8.28737608909009    6.54915258214668    7.20385087287533
C         5.67353043990059   13.92355796105505    2.10286134491712
H         5.62524347314017   13.40544405317968    1.13570544462184
H         6.59201985171600   14.52471908106203    2.13866404148849
C         4.45507848805326   14.82393375452939    2.27675070270039
H         4.50713025129943   15.29519667003056    3.25976567144225
H         3.55575178532459   14.20660718975553    2.24867971853738
C         4.38890502366315   15.89461252265259    1.19124993036619
H         5.29833504280583   16.49941199549764    1.22339663540640
H         4.34529162267215   15.41563728248636    0.21027230359320
C         3.17397490062239   16.80297161515245    1.36416421057503
H         2.26353808754600   16.20158075045225    1.31677172838742
H         3.21048428929735   17.27031816090723    2.35066315000717
C         3.11559027426430   17.89114065726888    0.29448987360019
H         3.08242618021717   17.42536840079564   -0.69303507624191
H         4.02453909270264   18.49499652411014    0.34469110881864
C         1.89953922418402   18.79211295818571    0.47037775913379
H         1.87854005008691   19.56092677706823   -0.29819324724976
H         1.92324309148128   19.27932446058191    1.44265420843216
H         0.98180708352686   18.21230702247792    0.40105309168879

