53
CSD_code = COHJOA | q = 0 | S = 0 | Stoichiometry = C21H26AuIN4 | MND = 2
Au        2.30715782845940    8.54294872779406    6.76267648324174
I         4.09650278599046    9.74573926642426    8.12369155361176
C         0.88067657588766   10.63064288324494    4.19155065439116
C         0.84953200332606    7.71158827301399    5.61119883905713
C        -3.17633496750336    7.57136209023958    1.28857505550926
H        -4.19419222157621    7.22365086312756    1.19139945331716
C        -0.34243488861521   10.83265552411792    5.04311964618810
H        -0.17212048760745   10.34981453186053    6.01273383550196
H        -0.49404480483367   11.90881185898773    5.22971997582928
C         2.46385127184227    9.11829293643977    3.15214605231676
H         2.78071463594649    8.10503630062147    2.94918034094762
C        -0.58737619337144    6.74339616702768    8.14664469106644
H        -1.50574872379623    7.29938917150781    7.96759140203628
H         0.21248056441681    7.44892834458489    8.36255788510326
H        -0.73167425883618    6.10908971040961    9.01648236811739
N        -0.90307670530311    6.67075371694529    4.72591597543778
C        -1.96499756124376   10.98779052661394    3.29066824168382
H        -2.32889285890199   11.98544660867207    3.58134921891775
H        -2.77146620666729   10.45025697089095    2.79417686049357
H        -1.14302918234359   11.10728907678000    2.58629746070153
C         1.30481737189653    9.33790653273804    3.88346322765751
C        -1.17508356297445    7.81614406023153    2.60647764935793
N        -1.50954232603702   10.21508434275483    4.42760802874815
C        -0.51151837500019    7.57658779586834    3.87384289049121
C         1.07163805021163    5.12471041254869    7.16187438895903
H         0.95670447748022    4.44275196444494    7.99944687361045
H         1.88295177784085    5.81372441529856    7.38607719197466
H         1.33874263728557    4.54826707335478    6.27865269537044
N         0.57992415828611    8.22972709928531    4.39029656934928
C        -0.55969246676350    8.45983905178271    1.53631984897603
H         0.46160427794458    8.79826137503221    1.61209903909883
C        -2.48890287718967    7.36555781465783    2.46758437195731
H        -2.95187073461372    6.85811854680506    3.29905838723505
C        -2.56262348074771    8.22415520190892    0.23072044329651
H        -3.10074446144162    8.38807685287685   -0.69090472316602
C         2.78779977394599   11.48404157162764    2.98656215481249
H         3.36726549004550   12.32694160239589    2.64302860129019
N        -0.07097009371338    6.76165677883104    5.77449998654836
C        -1.36829200826856    4.90590253442486    6.63004137052940
H        -2.29699098260396    5.44054461623625    6.45111595734977
H        -1.50277666108314    4.23723919287544    7.47541528872177
H        -1.13901990870872    4.31659869745927    5.74637613180416
C        -0.23554172867309    5.88458968685045    6.92946018726880
C         1.63641767577640   11.69618930349078    3.72481059539010
H         1.32533743522067   12.70359657712668    3.95880770348328
C        -1.25515358905538    8.66089263560059    0.35776239594266
H        -0.77025010144593    9.16146146233699   -0.46725527581572
C         3.20527593009828   10.19529123070962    2.70150324762492
H         4.11022488706146   10.02617149312801    2.13890452057686
C        -2.57837674615745    9.99464397634620    5.37759207918891
H        -2.96442396535536   10.92838432891075    5.81332981648776
H        -2.21793893593559    9.35826514140291    6.18573714340330
H        -3.39461754257993    9.48189308137352    4.87041521900706

