115
CSD_code = COHKUG | q = 1 | S = 0 | Stoichiometry = C60H44CoN6S4(1+) | MND = 6
Co        9.00135085701138    2.19428842352794    4.01808391360870
S        11.14818069967377    2.99285326232378    3.53419791355042
S         6.86085244008292    1.75750481300153    4.85796821414779
S         9.91288887080967    0.51492854743046    5.37106876793378
S         8.08807468415324    3.51044202783015    2.31211470327828
N        12.20968429319268    5.07534392356276    4.88272390754106
H        12.04700055788710    5.75919561560617    5.62259964527266
N         9.01413925812778    3.50424511638618    5.28129329681316
N         5.82751301948996    3.20051811886453    6.89075107950763
H         5.99877148952342    3.97124905760375    7.53725426242941
N        10.41681888671267   -1.95104076701794    4.39847603388873
H        10.36248144134064   -2.54891944095892    3.57334529820798
N         8.98716733163760    0.88934195986036    2.74938090596756
N         7.55923929344097    2.48156371304755   -0.12533050502699
H         7.60384017075722    1.64205333666047   -0.70375199707489
C        13.95644529562724    4.40220183663127    3.27367076373351
H        13.37712462220958    3.57137325734746    2.90892000776589
C        15.21251295376339    4.64688449558773    2.74727976914483
H        15.59341092535046    3.99892387058991    1.97304513167162
C        15.97791765632386    5.70617828205125    3.20269869992973
H        16.95588606074476    5.88841300311489    2.78586032534559
C        15.48098172562589    6.53210455983785    4.19941952722137
H        16.06992813707200    7.36010493434127    4.56232062468384
C        14.23021100323595    6.29800060977246    4.73244880562533
H        13.84280243302791    6.94174910014337    5.51042959500348
C        13.45465839423179    5.22993392673218    4.27290909904776
C        11.20030422167289    4.21902763888789    4.71153461982618
C        10.04756439990686    4.33523650127331    5.54062879537610
C         9.67792367049451    5.22260256363468    6.58792831415348
C         8.36405899821148    4.90637285324595    6.92805685887736
C         7.98574617763412    3.81352232120496    6.10136109645662
C         6.82762673230606    2.98653459218288    6.03312230913671
C         4.58282618210301    2.60187950601316    7.08629209422177
C         4.07432484036360    1.56053525794836    6.31667815839488
H         4.64725695029822    1.15172322326357    5.50202379311716
C         2.82038152668273    1.04816149743922    6.59906533508225
H         2.43453402138430    0.24082317620757    5.99607155054880
C         2.06352957919182    1.55934138563696    7.63888677658627
H         1.08712000400629    1.15309293445462    7.85075807243959
C         2.56709465404179    2.59815910089142    8.40683270090902
H         1.98476532593409    3.00438330783052    9.21929761568757
C         3.81589557821964    3.11750912875842    8.13487553820937
H         4.20857545009660    3.92803022674742    8.73366921381592
C        10.48563527122591    6.27542848640784    7.20655958204182
C        11.72454287972372    5.97825210435731    7.77848040314550
H        12.08198547139191    4.95696389805140    7.78034104713241
C        12.47385839247583    6.97487035832319    8.37859046627045
H        13.42775733993931    6.73260930194826    8.82264529318741
C        11.99814301811665    8.27503894583304    8.41568937565641
H        12.58381442121832    9.05114942358332    8.88352656031932
C        10.76418044448453    8.57452628256420    7.86098801492987
H        10.38689852230694    9.58495416410493    7.89678525964058
C        10.00921096942409    7.58287915689455    7.26291219841344
H         9.04807747810808    7.81559154602688    6.82949013900250
C         7.56024462538444    5.59085763846513    7.94218656218741
C         8.03970428135226    5.73212035011891    9.24216761344709
H         9.00107098574602    5.31428864360145    9.50098408716869
C         7.28701304988614    6.39419560358916   10.19419134343344
H         7.66598735431454    6.49550692144840   11.19962838873186
C         6.05262210861139    6.92891083608947    9.86168808068288
H         5.46874628574926    7.44662304210899   10.60689688088071
C         5.57407028099496    6.80755085594181    8.56751476379940
H         4.62024645578408    7.23600261443001    8.29835392006221
C         6.32108766855315    6.14331520231315    7.61076341325788
H         5.96207841740533    6.07873977014178    6.59201397711229
C        11.12338472697665   -2.04209549708071    6.76166889630128
H        10.75804983503308   -1.05038647051494    6.96563125842567
C        11.71531522588267   -2.77720708073948    7.77345833472793
H        11.80605838020584   -2.34125074836841    8.75629675024970
C        12.18692233310133   -4.05679340402861    7.53709343167428
H        12.64786686818982   -4.62122700671197    8.33226292626804
C        12.06115833659301   -4.61111662723227    6.27226291352735
H        12.42299537406394   -5.60904236370300    6.07819148725681
C        11.47112036581816   -3.88863254840800    5.25578291706464
H        11.37120490388644   -4.32135295102290    4.26937097893634
C        10.99980391177536   -2.59392485429219    5.49058320298072
C         9.92070511062579   -0.72655492193978    4.20884814931821
C         9.38090861137559   -0.38989967645769    2.93404266678990
C         9.21653682965431   -1.10636742355773    1.71722186916869
C         8.73012270624995   -0.19279484991791    0.78383566866367
C         8.58395733833645    1.04415629541422    1.46900745802221
C         8.05775659539545    2.31611510174841    1.10164038162214
C         6.99367046809539    3.56638788839801   -0.79558674495668
C         6.87119571513673    4.84782140624654   -0.26816925439223
H         7.22245391839596    5.06675645186786    0.72563228856192
C         6.29714971618910    5.85061640019506   -1.02947232882368
H         6.20696002043064    6.84145280144116   -0.61177906466443
C         5.84294373577845    5.59537356867515   -2.31160461906532
H         5.39618036100537    6.38378269474653   -2.89653241337577
C         5.96699547853527    4.32001668453797   -2.84132890364893
H         5.61812554677497    4.11077449335502   -3.84065133108076
C         6.53810826738013    3.31207354685688   -2.09220224270990
H         6.63561946773019    2.31748732543684   -2.50571689996043
C         9.49579806140373   -2.51940542320530    1.45590011342709
C         8.90884576351697   -3.51755015626530    2.23665095170901
H         8.22759442165780   -3.24392266158838    3.03149383897101
C         9.16140551357480   -4.85167133561955    1.97022599957279
H         8.69759784773545   -5.61489677310225    2.57691804033264
C         9.99838581818126   -5.20534636539886    0.92480724153950
H        10.19416031153033   -6.24613639870325    0.71825280048320
C        10.57454638680136   -4.22050869101038    0.13849339447324
H        11.22010091136880   -4.49352624588297   -0.68217546579463
C        10.32439607410457   -2.88594799368089    0.39792971889613
H        10.77455279274801   -2.11812294146347   -0.21327295234069
C         8.43455895439610   -0.48698439906163   -0.61947488903773
C         7.58563001278958   -1.53986808821163   -0.95218859441373
H         7.13333383445874   -2.12491804422028   -0.16546917474806
C         7.31849182800198   -1.82737895495666   -2.27771372005619
H         6.65714908635789   -2.64367799424339   -2.52479431924070
C         7.89755139225309   -1.07463770316395   -3.28677104926885
H         7.68779426301717   -1.30255284404265   -4.32034110112382
C         8.75552946614832   -0.03542557840610   -2.96663238079383
H         9.22199551727848    0.54474858753417   -3.74864403353268
C         9.02530680045279    0.25889485967819   -1.64179571281869
H         9.72251825778153    1.04832096421878   -1.39374448565611

