76
CSD_code = COHMUJ | q = 0 | S = 0 | Stoichiometry = C30H31N7NiO7 | MND = 6
Ni        1.96638985329674    8.51508912911856    5.85817957931320
C         2.50618800636476   10.65735845514099    4.03055644063965
H         3.46350732565135   10.46727802888221    3.52790305744429
C         0.83070582667349    8.27195461664529    8.27367051998932
H        -0.00009151709950    8.66839505219327    7.70181587417153
C         1.52448708182475   11.24721379129457    1.81353958214597
C         1.68130756440824    7.30086498550976   11.75720963206875
C         1.80490256142728    7.53574697490075   10.33685305487445
C         0.72154876076956    8.06535330824760    9.63293577971564
H        -0.18427315980930    8.31011558899567   10.16312192280541
C         1.23500831007612   10.28881670160688   -0.79534175282733
C        -0.11002660487038    6.61943877623833    4.89020038422937
C         1.71798487118752   11.70222283291755    3.23136553313035
H         0.75376696583533   11.86739539191773    3.71842853672965
H         2.27994076598088   12.63665000271140    3.27261979946922
C        -0.16989411003942    4.77009893937371    7.32814290497088
H        -1.07381018113762    4.98871215593750    6.78227891694480
C         0.97233779388812    4.34874985647228    5.13193487034430
H         0.01136245366293    3.98387374946272    4.76779197599141
H         1.76355795580047    3.68505553594811    4.77215301758786
C         1.17492969905577    5.75973863780901    4.54870618223479
H         1.19863206030388    5.69685778082418    3.45546890097148
C         2.97712508535803    7.46535206744204    8.25192051521472
H         3.86166562287654    7.23911261241432    7.67132432229558
C         2.95787694491930    7.23328378496018    9.61274199236035
H         3.83008783758569    6.81433269941668   10.08802431267383
C         2.38154910099880   10.98827726330763   -0.42730333821287
H         3.14704655378195   11.15530466949248   -1.16815666856011
C         0.23579814835569   10.07365317202753    0.14520662018163
H        -0.66094459646558    9.53533139515263   -0.13253648253624
C         2.51838075717495   11.45714822026595    0.86279057884925
H         3.40867930040142   12.00333135125144    1.13930647255016
C         0.38453507860829   10.54888689894326    1.43588983621645
H        -0.41043946059653   10.37955077780655    2.14882984690163
C        -0.49194069628836    6.86331405793626   17.15667844754015
H        -0.22379405462475    6.57170020290307   18.16389303818685
C        -2.12076016045972    7.65606265621617   15.78945008811867
H        -3.14550611233906    7.99528928418270   15.71042930339283
C         2.14492531880329    4.20264813908837    8.73721958910182
H         3.03536610797902    3.96829622222887    9.29907272182487
C         0.99733278116565    4.58535600263526    9.41909714219048
C        -0.16061599089561    4.86880724900287    8.70546439793872
H        -1.05723912098892    5.16065743173638    9.23555140347869
C        -1.29180982560261    7.62588931834944   14.68087666377788
H        -1.63328557537769    7.93831297894579   13.70723639189376
C         2.12624403185914    4.11160910747285    7.35762207109167
H         3.02225756051573    3.78810042974336    6.84451982658599
C         0.01800354920701    7.18062159102981   14.85069733511397
C         0.97349323116979    4.39339449241124    6.63291008699121
C         0.42738635967515    6.78883075714505   16.12439252101899
H         1.43511147358372    6.44094889014399   16.28389546171293
C         0.93246293748759    7.13127540878445   13.72596547780855
C         2.84263859436813   11.17601955303110    5.47489293554699
N         1.77067956437152    9.38906059854609    4.15295252398879
H         1.83764612117049    8.84719246849450    3.29074973348291
H         0.77388462142133    9.61053114146122    4.26875779965353
N         2.39641328522531    6.39823704514127    5.03494600536042
H         3.15302162751563    6.30395940953719    4.36610467324190
H         2.68832510603751    5.92925704519803    5.89092835925659
N         1.93813407191567    7.97506819628069    7.59211361691907
N         0.58251487461997    7.47790966229040   12.46581648590446
N         2.19785159972069    6.74712570969561   13.81995121589226
N         2.66332580961706    6.85650021779993   12.58119718332751
N        -1.73602649172895    7.28504679110334   16.99911936544184
O         2.70406508567618   10.30126582544753    6.39080086008817
O         3.24846625082972   12.30792023687564    5.62849998261992
O         1.13774444497960    9.83752912002497   -2.07464896516662
H         0.29200428871350    9.39052947182637   -2.20199903672062
O         0.08933188544677    7.69523685513778    5.51402237703420
O        -1.17957700923153    6.17794347529977    4.51271115524362
O         1.05179035026575    4.68125139058057   10.78039651460467
H         0.17474237658683    4.89427167658253   11.12371045500146
O         4.49571543226609    8.30438080779413    5.71975335557406
H         4.75919243411432    8.56496539457474    4.83351383653189
H         4.48919103830705    9.11623833727646    6.24692154090458
H         3.61627016661343    6.60230014543032   12.37534333760300

