35
CSD_code = COHMIW | q = 1 | S = 0 | Stoichiometry = C8H20AuN4O2(1+) | MND = 2
Au        3.86605388943818    3.39520451074009    7.62318247480621
O         4.91304985386855    2.44891548380146   12.61923143159939
H         4.30047118537835    3.19149026916145   12.58272438722138
N         5.56584612784426    1.03899518081044    7.04151702307406
H         5.53845566361003    1.45351945351526    6.12564459498007
N         4.91899768413596    1.07192570992467    9.20028963273262
H         5.45576641213885    0.22320570293220    9.34074777909451
C         4.89407497369166    1.64799739554265    8.01161328612372
C         6.33948068841928   -0.18440570935905    7.15872736562651
H         6.78560005012574   -0.41028712195125    6.19493963993463
H         5.70438003713578   -1.02480430922045    7.44801604995463
H         7.14363355967407   -0.07040324147609    7.88921094902417
C         4.33745894050530    1.59759357462717   10.40613933808650
H         3.80750008258907    0.79812077222770   10.93231101405278
H         3.62128713849773    2.37982915713670   10.13806086773499
C         5.41983685898511    2.16632375825901   11.35004513567775
H         6.19603764309328    1.41269227318782   11.50930049721651
H         5.88225446813076    3.04979152721220   10.88658753943145
O         2.80725503245200    4.33560813772738    2.62797074094541
H         3.41863440522370    3.59188230902246    2.66396277367470
N         2.16923069504711    5.75343762398481    8.20560424363169
H         2.19881543888633    5.34042040686029    9.12208340290240
N         2.81045271035067    5.71659487508244    6.04521285489018
H         2.27395825329814    6.56549678478375    5.90479188152315
C         2.83804908331666    5.14241233590238    7.23473804639346
C         1.39620461186462    6.97723008463096    8.08846995141027
H         0.95299067828385    7.20511959270039    9.05313346284077
H         2.03113879725434    7.81663852739938    7.79594074433529
H         0.58989857750784    6.86258702713180    7.36045473333133
C         3.38871167077755    5.18874261897538    4.83874899225299
H         3.91854619493059    5.98693998084364    4.31045416318650
H         4.10448521011580    4.40591934419506    5.10624368785898
C         2.30351487971188    4.62021904253300    3.89792149800550
H         1.52794480017359    5.37473893798237    3.73944169144556
H         1.84088370354315    3.73780798317194    4.36333812500035

