47
CSD_code = COHTEZ | q = 0 | S = 0 | Stoichiometry = C22H14Cl2F4N4Ti | MND = 6
Ti        1.75282917801481    3.96926774864795    2.15957612778233
Cl        2.47206966269170    2.42876602901656    0.83925846559266
F         0.10711993809410    1.48507398706789    2.55266385436156
N         1.11506747505181    5.25299474355376    0.56383375245159
Cl        2.13523374796502    2.96344804618468    4.06235706928471
F        -2.63958536909376    5.29634004721892    2.40151086459425
C        -0.15258832868395    4.80589434338254    0.74188718453467
F         4.23610468809608    4.66079940104222    0.17786786220975
C        -1.19107275118489    5.18442328389728   -0.12941115654832
H        -2.18638137655848    4.79104420261213    0.00110288319702
F         4.90826032703886    5.06325088836766    4.81277665727165
C        -0.88878033824259    6.04552101815834   -1.15846399143464
H        -1.66228275069268    6.35533170323197   -1.84562434087576
C         0.41686653618281    6.51099259511418   -1.32027406742856
H         0.66704646099466    7.18432494962365   -2.12324175248553
C         1.38869307737675    6.07859770037568   -0.43879657277025
H         2.42088768586282    6.39129790309816   -0.53203257395310
N        -0.16294451470111    3.93497692071573    1.76628822941593
C        -1.23498448800841    3.38220824497772    2.41165097284816
C        -1.07790656338869    2.06529136944210    2.87420784386389
C        -2.03562361158382    1.39004554758347    3.59274835846399
H        -1.85041489066216    0.37938816485154    3.91768343215550
C        -3.22832588357795    2.04064505127087    3.88079312425234
H        -3.99659852312778    1.53194023191696    4.43951834363284
C        -3.43059473897708    3.34555975619179    3.46398785175783
H        -4.34281021800330    3.87202531308842    3.69653208240279
C        -2.44501661687294    4.00004165035279    2.75110324779498
N         1.23810477785540    5.74108500257991    3.36689544464257
C         2.55842630124474    6.04417081073525    3.35920714278929
C         3.06609404021911    7.13239356549033    4.09201876328117
H         4.11699293694951    7.37146726144740    4.05331850434830
C         2.18562024556544    7.87167986131939    4.84659416378001
H         2.54300099749329    8.71086557482314    5.42492264318846
C         0.83016677729603    7.54046338372619    4.86001064760305
H         0.12759145370024    8.10864122936988    5.44688264331053
C         0.40368003930698    6.46922041958120    4.09995669808358
H        -0.63996727735217    6.17978913880828    4.06960463974269
N         3.19716681471447    5.21904384657896    2.50920495159411
C         4.52978486516913    4.90273054570029    2.48031780069425
C         5.07909239977029    4.54957589276698    1.23860037984559
C         6.37696767979306    4.12545528823092    1.07485020427663
H         6.73619748001146    3.86330825695208    0.09310568962425
C         7.19268707187902    4.03950438062434    2.19493498579385
H         8.21246886966270    3.70661480015311    2.09205129890558
C         6.69876982111361    4.36726199842698    3.44672069936903
H         7.31295778866114    4.28672482386920    4.32952967043560
C         5.38882910291304    4.78381307783601    3.58126927634495

