55
CSD_code = COHVOL | q = 0 | S = 0 | Stoichiometry = C16H26N8NiO4 | MND = 4
Ni        1.81522010095912    4.22483048516130    8.00746293970670
N         2.26615026988084    4.18319193784855    9.85599620402160
N         0.58324131224083    5.50744235736521    8.54820985475560
N         1.48890929022913    4.78741101270863   11.95250468215113
N        -0.18772806017244    6.78183774722421   10.37574631310578
O         3.10436297987017    3.28945672389313   10.50302531175823
O        -0.15663495417452    6.21636226529525    7.74309325615868
C         1.46162890278145    4.88764743201957   10.60543007558266
C         0.59916776524625    5.77776888164766    9.82839408652154
C         0.38701619792452    5.05438133064103   12.84437497780388
C         0.79538642067561    5.84832006350944   14.05162085927667
C         2.00283264720897    6.33278910682674   14.27183665188534
C         0.45798339392162    7.84975355968382   11.12236913620469
C         1.14703921571127    8.90006376383504   10.29224528341089
C         1.18732034377286    8.95431286252592    8.97503108161800
H        -0.05409566938138    4.10605433936313   13.18589126340255
H        -0.38905950447655    5.59364340596421   12.29474720638262
H        -0.00315780441781    6.00315294354155   14.76428531430197
H         2.23412275078061    6.89492914165710   15.15944306745312
H         2.81033068275838    6.18830412537573   13.57340764999671
H        -0.31266728096304    8.33532941789497   11.73407558193314
H         1.19051377385459    7.41011467242003   11.80416944379428
H         1.63532323924551    9.65844422008754   10.89122392309145
H         1.70678427012862    9.74627733497301    8.46369308493203
H         0.71484123430085    8.22359660472655    8.33837084646299
H         3.52246929080479    2.76697854017551    9.72489125585898
H         2.15693320386166    4.09584439014740   12.27444307802890
H        -0.77835891800395    7.15858346112580    9.63414581585063
N         1.36406636719514    4.26629675748323    6.15891286819224
N         3.04709996142467    2.94195410546800    7.46677540191855
N         2.13950590284261    3.65927178195121    4.06226995688358
N         3.81678673898962    1.66671801940366    5.63918912125369
O         0.52549347140884    5.15956314969421    5.51181512548137
O         3.78710434250765    2.23304540286539    8.27182163128989
C         2.16781098852881    3.56092848941989    5.40959097453688
C         3.03053668687689    2.67116278947839    6.18670744778347
C         3.24282373898681    3.39484590674779    3.17123957437071
C         2.83680358072579    2.60256520981631    1.96218070827689
C         1.63011510339302    2.11747357581553    1.73925788247440
C         3.17011394707919    0.59909910221663    4.89300499559000
C         2.48273248511605   -0.45171646530791    5.72386376723345
C         2.44437881524076   -0.50619697140088    7.04112151233847
H         3.68364387147267    4.34412229543394    2.83191548699662
H         4.01862816158094    2.85526071092461    3.72092627616055
H         3.63653841696668    2.44962282434109    1.25043697946198
H         1.40066706144322    1.55685173052662    0.85021119466294
H         0.82132228347465    2.26025267389216    2.43655411880783
H         3.93975132184437    0.11398584372566    4.27967613888383
H         2.43635132365971    1.03903125347137    4.21273140987647
H         1.99410578541462   -1.21035065447098    5.12548113952159
H         1.92640021058053   -1.29875765620283    7.55309482061297
H         2.91741822343357    0.22463271828181    7.67722576255908
H         0.10797497013566    5.68265643537616    6.28981801006721
H         1.47116769884515    4.35043608764763    3.74003503810997
H         4.40778344626351    1.28982275576436    6.38041441120432

