67
CSD_code = COHWAY | q = 0 | S = 0 | Stoichiometry = C28H26N8NiO4 | MND = 4
Ni        5.95498290995390    0.00176502615816   14.71030050114563
N         5.79323787876603    0.05473925690529   16.60400566299890
N         7.77971184739733    0.03067214902572   15.05868213555321
N         6.98635466187498    0.50335784706082   18.54206268894146
N         9.39825127451827   -0.04158312032352   16.73421670436616
O         4.64426200549051    0.21234041236371   17.35162678076001
O         8.72238136174058   -0.08080965775324   14.16673526670859
C         6.93308291179566    0.23070039009202   17.21558865995429
C         8.08617679760417    0.04515373014729   16.33325353338030
C         8.02257368284764    1.12445548702024   19.24343920590894
C         8.21812544818608    0.80520691633498   20.58383863883843
C         9.24796287652177    1.39399769973524   21.29054718588785
C        10.08389436251632    2.31023683919884   20.67392778075028
C         9.86865636017294    2.65389403608496   19.35051176755297
C         8.83797625126036    2.07398581054201   18.63543998575538
C         9.88289397337308   -0.70626031080628   17.85387495140242
C         9.11859267647025   -1.64444742913283   18.54404014881057
C         9.62479514762304   -2.24848489784406   19.67892320791925
C        10.89494525662133   -1.93927638056053   20.13315365188280
C        11.66992005681298   -1.03112615496540   19.42995276522331
C        11.17317918714076   -0.41960717441044   18.29725586356421
H         3.89713390410599    0.15381227509573   16.64411710969850
H         6.10133510685212    0.38088831640310   19.02085045600246
H        10.04239924723166    0.10780807658683   15.96371090889911
H         7.56855917332950    0.08523139129438   21.05878074674650
H         9.40230625555958    1.13236635881677   22.32642718136449
H        10.89257270475185    2.76310487751175   21.22665054970375
H        10.50078346684063    3.38694657159393   18.87214033615799
H         8.65659521133056    2.36095336496673   17.61116251146403
H         8.13776903323228   -1.91156085816644   18.18062662330088
H         9.02353126049880   -2.97395881107175   20.20688219956220
H        11.28414575041750   -2.41193827146325   21.02184229268124
H        12.66792148806693   -0.79607925593145   19.76874732256939
H        11.77417162677152    0.29069298586018   17.74913411063370
N         6.11674449308468   -0.05196458722905   12.81653291791308
N         4.13027952460246   -0.02760093767816   14.36198919858574
N         4.92347866184719   -0.50307868329144   10.87907311062384
N         2.51180891346654    0.04410812943318   12.68632348626413
O         7.26572844454618   -0.21029770699876   12.06907851573199
O         3.18758701581987    0.08378813449497   15.25394538601962
C         4.97691279347291   -0.22889945807282   12.20523540680878
C         3.82381402798678   -0.04265344477093   13.08743368850136
C         3.88724034254492   -1.12535038991789   10.17876541301247
C         3.69124818487702   -0.80800915319631    8.83797672959942
C         2.66134585159672   -1.39802675719367    8.13238265829797
C         1.82578089725215   -2.31359054140572    8.75050171921698
C         2.04145592954572   -2.65535300176117   10.07433655922025
C         3.07220026548424   -2.07420864015601   10.78830495386405
C         2.02748809188614    0.70763312384899   11.56584535564655
C         2.79202825865871    1.64504746388009   10.87488961861102
C         2.28621301077573    2.24778823037490    9.73914418483471
C         1.01626301962895    1.93798249946865    9.28476106998228
C         0.24103719363795    1.03064124273693    9.98873171907035
C         0.73734141467801    0.42051068933135   11.12236468854853
H         8.01288334283006   -0.14935082036462   12.77632316667312
H         5.80839121488615   -0.38106844999188   10.39997685940439
H         1.86747149227136   -0.10471206890657   13.45676786454908
H         4.34055362040095   -0.08860409437414    8.36181562034997
H         2.50677266709711   -1.13802417598653    7.09612708649083
H         1.01708836578832   -2.76745301347535    8.19861471265841
H         1.40952201695547   -3.38774726850505   10.55397035103920
H         3.25385077215813   -2.35962470261886   11.81296735606002
H         3.77279376521964    1.91247228591627   11.23823261004738
H         2.88778025248368    2.97242790468408    9.21038578224001
H         0.62740260391673    2.40957462374714    8.39535560286533
H        -0.75697313857197    0.79545410026672    9.65006185903911
H         0.13608553149353   -0.28898802866174   11.67123531213751

