39
CSD_code = COHXAZ | q = 0 | S = 0 | Stoichiometry = C16H15N2O4SV | MND = 5
V         0.87012811388113    2.48757806707663    3.38825051211390
S         1.22238912396067    4.73085981329269    3.89428225817603
O         0.89316047470579    0.99985947204273    4.24549916158195
O         2.40024684002472    2.53872197272562    2.85385468224153
O        -0.13104304570554    2.61351226733552    2.24428643245473
O        -2.97967579733798   -2.57673444811539    5.71706918930367
N        -0.72937656011280    2.87612345877714    4.69522242626710
N        -1.13134405676279    4.13080389285731    4.91176684820645
C        -0.00192449038938    0.12231764179572    4.58334593187082
C         0.26869728648585   -1.25292256229465    4.58391875492271
H         1.25174003533781   -1.58307584869294    4.27977628238316
C        -0.69403765398524   -2.16969978804020    4.94619082887936
H        -0.44587297523103   -3.21894970327608    4.92019094126721
C        -1.96947284261652   -1.74591536355461    5.33972686614083
C        -2.25182118953820   -0.38925752138827    5.36711515408382
H        -3.23411651315952   -0.07091200160350    5.67939332206862
C        -1.29354416737614    0.55715873571393    4.99257473636644
C        -1.56082963316634    1.95306033459473    5.07003132074270
H        -2.51397729151918    2.27590939392720    5.49311068232947
C        -0.33591973811486    5.08513977910213    4.55153326003104
C        -0.75682484751640    6.46936908572045    4.74103830020788
C        -2.04979592287992    6.74637772253182    5.19232378173618
H        -2.71581758181224    5.92285398168119    5.39349064676616
C        -2.45926205794954    8.05304053293592    5.36941708236515
H        -3.46087757289720    8.26010449807741    5.71633707327475
C        -1.58999547449837    9.09940642324545    5.10099669459245
H        -1.91345763340702   10.12047235615151    5.23977579842062
C        -0.30594007586983    8.83270432527527    4.65275183371016
H         0.37211049696149    9.64658401409571    4.44303534376270
C         0.11031197666053    7.52789582381287    4.47227105817922
H         1.10810408906231    7.30936039264047    4.12328136801670
C         3.40500471740874    2.94855060672345    2.03339839587287
H         3.11450312582777    2.81972979069320    0.97975586302708
H         4.32454228250507    2.38112651366442    2.23571484970104
H         3.60398179496559    4.01850372282552    2.21926216851145
C        -2.75690141066628   -3.96669170574206    5.69525892727289
H        -2.51873681021223   -4.32085985357315    4.68736993745611
H        -3.69274375969201   -4.41719111631283    6.02181211531446
H        -1.95751125537153   -4.25821470672235    6.38406917038063

