43
CSD_code = COHXON | q = 0 | S = 0 | Stoichiometry = C16H16N3O6SV | MND = 6
V        -2.80406156318743   -1.41891764608493    8.92108030681007
S        -4.42650558304314   -2.10020034878636    7.37104484228187
O        -2.34431780901173   -0.38234482871713   10.28675953348737
O        -2.21202042120236   -0.56349788741025    7.68166427710763
O        -2.15850172601355   -2.79174759599141    9.03359423927634
O        -2.37521276420713   -2.25010762986193   16.17044001200103
O        -0.71544707983402   -0.88469742436403   16.21232556629837
O        -4.57582265738356    0.59102261613319    9.04103046927276
H        -4.08346668644031    1.28458684827777    9.49896673202159
N        -4.28680517004504   -2.07923853062863   10.20776804149638
N        -5.37985616592984   -2.69262273789839    9.75575550911838
N        -1.61736502270928   -1.46284133090379   15.63955837830893
C        -2.15721530674116   -0.64958114254759   11.52866659163639
C        -1.13747623416922   -0.01018227246716   12.26971868989549
H        -0.49498864214265    0.68721877395448   11.75209516495172
C        -0.95737203943040   -0.28309616529659   13.60008814565936
H        -0.17282115119814    0.19086450345902   14.17035053373662
C        -1.80421255340569   -1.19298639562214   14.24505049320214
C        -2.82476738389426   -1.82594518450603   13.55632991346527
H        -3.46394542637046   -2.51959069202823   14.08303804619835
C        -3.01725992435663   -1.57372752608040   12.19964371935617
C        -4.09075448684548   -2.18464896675880   11.48379027624746
H        -4.80537750895198   -2.78231017048327   12.05291892024731
C        -5.55267157276176   -2.78670499266333    8.47629602645521
C        -6.73719333501532   -3.48198466444388    7.97972841375959
C        -7.63843789247652   -4.05367250937414    8.88152013638269
H        -7.43976641240071   -3.96833597428872    9.93759853012326
C        -8.75852721696273   -4.71617930849813    8.41977443610540
H        -9.44989324911607   -5.15699125027114    9.12255029067735
C        -8.99613336731942   -4.82024544285857    7.05774159655171
H        -9.87156086912914   -5.34136843048509    6.69963874527403
C        -8.10670226238991   -4.25623851643279    6.15657065835953
H        -8.28944322036336   -4.33745777343589    5.09545391132493
C        -6.98478224869358   -3.59103346293118    6.61141972794013
H        -6.28388168755848   -3.15027575982444    5.91875674991387
C        -1.64009643337435   -0.41234093354697    6.45705698235907
H        -0.76900253835063   -1.07728508273890    6.35614494944684
H        -1.32786188631050    0.63041825494095    6.30088617826473
H        -2.38105641177554   -0.67804900545935    5.68301487250145
C        -5.30049857556146    1.18624120553261    7.98044330752494
H        -4.63314319663065    1.67722593158520    7.26480617571249
H        -6.02095813644156    1.91518223401021    8.36594103471655
H        -5.83661618086051    0.38368721576719    7.47487887453206

