57
CSD_code = COJBEK | q = 1 | S = 0 | Stoichiometry = C27H20F3MnO3P3(1+) | MND = 6
Mn        7.57750480336105    4.94674270418163    7.20979473088959
P         8.63599590924336    3.04793812254333    7.80581251189817
P         5.73756193326328    3.59940080180727    7.20458248988022
P         8.29733948128510    4.46053138220438    5.06166759217244
F         9.60795112301883    3.58816019112103    2.57401174049462
F         9.04344495731844    7.10405902782863    5.14543705906955
F         5.58653144637951    4.08450193376530    4.38842388060701
O         6.84407064748747    5.53596765784054    9.98462229493609
O         6.02842503458641    7.16182206229792    6.07052328083865
O         9.67155228619007    6.85365730902990    7.94649834424207
C         8.92409122438369    6.07252575300727    7.58551783869755
C         6.62193180310607    6.30956007590280    6.53648510953566
C         7.11498835009212    5.30655407108805    8.90147916563645
C         7.54656385045206    1.60548627326804    7.65586686788197
C         7.99602232285848    0.30004250207127    7.81871724405707
H         9.03245657262343    0.11075736750635    8.06159516027369
C         7.10360035736672   -0.74607152979212    7.66351130823583
H         7.44508312726203   -1.76210591170918    7.78692144051326
C         5.77388727471909   -0.49842722301912    7.34952975241503
H         5.08896551400705   -1.32364108415986    7.23105143650078
C         5.31700122056415    0.79847919259441    7.19117851310844
H         4.28126267182690    0.99271516559191    6.95094349524280
C         6.20618549990633    1.85477893469606    7.34734681349344
C        10.08261749857665    4.21817963945421    4.79343816246423
C        10.52704514154384    3.84053335361303    3.52610134804444
C        11.86684311767636    3.70303148599351    3.22590333280786
H        12.15912943556179    3.40807793464135    2.23065217834100
C        12.80272024543924    3.95818309761502    4.21528160131856
H        13.85365410299275    3.86277744532618    3.99303054412974
C        12.39075922755327    4.33643229664975    5.48326091045311
H        13.12107240817211    4.53758648684795    6.25112763779285
C        11.04304554526850    4.46657818090222    5.76899297355765
H        10.73014659415111    4.77272914161653    6.76063609729013
C         7.94488409349299    5.63161190822451    3.71362335802155
C         8.40597301215058    6.92112844928275    3.96007110444363
C         8.24819950508939    7.95883018368815    3.07041426328963
H         8.61976790894106    8.94156618346956    3.31149577725218
C         7.60447061327341    7.68884606455056    1.87188164999289
H         7.46299215874747    8.48154293119344    1.15442715054204
C         7.15281914735954    6.40948710998791    1.58974076652151
H         6.66610507234481    6.20843200299944    0.64826665706180
C         7.31811192257648    5.37841340322570    2.49889009595071
H         6.97713751480802    4.38474181936142    2.25202289486346
C         7.58971504663358    2.88786873445870    4.50043168772791
C         6.22512872243111    2.89510519039068    4.23135563066734
C         5.52953102208299    1.76565863817512    3.85747273173104
H         4.47587872292258    1.82452331462302    3.63504060778693
C         6.22744419037699    0.56966631043266    3.77993176049202
H         5.70934238645394   -0.32957178284384    3.48724582742646
C         7.57966124074040    0.52418659009218    4.08035847011713
H         8.10869003362582   -0.41445094554042    4.02797337547517
C         8.26336327623542    1.67307832459168    4.44077662709220
H         9.32083997592088    1.62996393059800    4.66357897662674
H         4.99470250940229    3.70886337595327    8.38057338631300
H         4.60634495050035    3.50989799560028    6.41459183602204
H         9.09808911584387    2.86760008593657    9.10695840935871
H         9.78005712983535    2.51666633922943    7.22253409842145

