115
CSD_code = COJGUG | q = 0 | S = 0 | Stoichiometry = C48H57MnOP2S3Si3 | MND = 5
Mn        0.75004475413389   13.59924382846515    8.42094309388663
S        -1.19514276600008   12.99655852238753    9.13496953488384
S         1.55708597132877   12.71767431205565    6.62481669484062
S         2.01573521078933   14.79765027507756    9.69456238444062
P         1.51981537396806   11.90286004770350    9.46813631725188
P        -0.47609389197679   16.20825843931530    6.47748095406120
Si       -3.93302838086038   11.64355782220913   10.18681505074798
Si        3.11826598846037   11.18718449640219    4.24629440663563
Si        3.85328810333370   16.24361905528653   11.93156797866441
O         0.01115677886931   15.24391340949899    7.49116101937840
C         0.17724179002305   10.85511102087141   10.10983037825500
C        -1.08597888644470   11.44142684766920    9.95446429008514
C        -2.24112583241836   10.80489361537103   10.40301139492975
C        -2.08811779448169    9.55638774706759   10.99598741396041
H        -2.96544397547580    9.03827517444457   11.35236764068286
C        -0.84807591288668    8.95350448707564   11.13088310255973
H        -0.76944304553777    7.97475737402314   11.58184372810847
C         0.29332657003683    9.60023703393057   10.68723335500674
H         1.25961777595069    9.12688457036340   10.77644388412895
C        -5.26327525644011   10.48772832973345   10.92171042634237
H        -6.24510486597828   10.93908166443544   10.82660166497938
H        -5.09545409241270   10.29759290920057   11.97662599821713
H        -5.29574851162866    9.53132304623562   10.41031266342503
C        -3.99043000203026   13.28596835730188   11.15716601033701
H        -3.23195725318388   13.97459995460059   10.80173259273978
H        -3.81491802935594   13.12211195735922   12.21656610761823
H        -4.95812203161490   13.76882237350228   11.05537900404600
C        -4.35029477321665   11.89974416836652    8.34167869337448
H        -5.35481693401501   12.29482443067930    8.21968271610715
H        -4.29532843848821   10.96358721597692    7.79340855013466
H        -3.65969202549514   12.59505075724763    7.87715693118298
C         2.55091757554622   10.87633823729490    8.37797319814795
C         2.50587377583195   11.29006735452326    7.03941101874215
C         3.21831900528299   10.61054907197409    6.05301185992234
C         3.98435617345566    9.52148105955372    6.45383488391636
H         4.54686368689903    8.97940738303683    5.70890492437719
C         4.05756310108228    9.12091893837138    7.77784649333326
H         4.67658279424801    8.27997769157288    8.05532179702288
C         3.34004634813127    9.79870805866240    8.74881131235213
H         3.40545287845282    9.50141152821656    9.78469444221117
C         4.22545323913932   10.04264580159727    3.19186792021121
H         4.18059148958001   10.33434193069148    2.14778495038166
H         3.90912242142569    9.00661891832688    3.25160437871872
H         5.26522177914072   10.09346322023362    3.49756202332981
C         1.32624887845685   11.00547848412443    3.61730000685570
H         0.66864199827738   11.69464482572413    4.13561726446489
H         0.95299100748607    9.99965639521985    3.78866175840025
H         1.25328768099178   11.20718234278077    2.55285543302359
C         3.78608082410970   12.96466719795146    4.05856397612890
H         4.00467821455453   13.20145882416082    3.02145024891787
H         4.70257714885315   13.09699085022893    4.62647221306090
H         3.06722416902614   13.69041381716380    4.42313562814727
C         2.54728242856089   12.40621002307432   10.88350768665286
C         2.77753123873212   13.78795411952922   10.92093163745684
C         3.56348553326754   14.36508989380592   11.91584874924759
C         4.09449911090092   13.51374800527856   12.87869469676449
H         4.70669882889344   13.93257115339673   13.66287083081759
C         3.85043066757414   12.15009584658541   12.86992833374254
H         4.26471576447232   11.52189628959076   13.64531790111473
C         3.07327290810447   11.58790440383115   11.87111985894857
H         2.86715847072611   10.52806493333308   11.87008624420531
C         4.73639195358135   16.81079881336618   10.33759473236900
H         4.12953475731847   16.61084530196310    9.46145310955258
H         5.68255787700835   16.29319575604254   10.20753056019264
H         4.94533827402547   17.87641288129905   10.36509983502828
C         2.20889099784862   17.17455593015998   12.20008415678322
H         2.36553589823302   18.24921323789800   12.22108192804629
H         1.74670614296125   16.89068691581540   13.14129432550932
H         1.50166593841111   16.95504953323401   11.40785466429634
C         4.99944646846767   16.65391869164192   13.40236157311398
H         5.19895704524763   17.71971224124895   13.43452365841349
H         5.95592583801846   16.14769752289304   13.32359522417067
H         4.55281640712654   16.37969964059842   14.35238516612810
C         0.06048358385869   15.72881638768895    4.81250143184168
C         1.19434745477154   16.27500449221554    4.22981607592885
H         1.71952771582258   17.07833962769045    4.72926948591362
C         1.64337635166599   15.78787514926328    3.01612301599609
H         2.52870423005643   16.21304347453789    2.56506756788616
C         0.97597479330308   14.75231187862455    2.37273956219987
C        -0.15594378286889   14.20811588519694    2.97189870671822
H        -0.68070664025131   13.40057308673736    2.48225593561986
C        -0.60841812748825   14.68463914225500    4.18549141391832
H        -1.48187392249710   14.25396768448056    4.65872520157148
C         1.47912897349162   14.20574648005076    1.07361597850766
H         0.65233532852608   13.92502462931443    0.42461692155264
H         2.07649025202863   13.31345805714511    1.26232563699891
H         2.10421616499154   14.93165327087232    0.55926747110899
C        -2.28836194068695   16.25709190049479    6.46516430138983
C        -3.01816891315783   16.75037178349704    5.39161553118365
H        -2.50507587712938   17.12521329249774    4.51656700834210
C        -4.39882849333434   16.73767467784410    5.43856582133912
H        -4.96499042432308   17.11754272496415    4.59964042290169
C        -5.07193512284720   16.23270485846853    6.54679877901762
C        -4.33048951162321   15.74273036716754    7.61663161243740
H        -4.83681439648749   15.33900059712409    8.48111379536252
C        -2.95026347551730   15.75839852038794    7.57974687469252
H        -2.37476026882351   15.36546631448937    8.40670238423756
C        -6.56798810190837   16.18611878301385    6.57825903654483
H        -6.99709098611709   16.90866386522331    5.88834372365048
H        -6.93929989440888   16.38715029179385    7.58061767883772
H        -6.91203708214511   15.19296524122513    6.28774723719113
C         0.16067345656259   17.86401268230835    6.84149058984113
C        -0.18242534935638   18.96897401563361    6.07413644532584
H        -0.84214471608359   18.85130222083831    5.22615029386722
C         0.32646752824177   20.21205247521035    6.39763045946822
H         0.05927616605187   21.07085198581861    5.79799584088555
C         1.17953832322521   20.37317790082735    7.48475774777801
C         1.51466282700397   19.25820044482946    8.24682633256726
H         2.17729168168217   19.36687858447278    9.09327342088368
C         1.00910734271859   18.01267063636014    7.93137732886147
H         1.27248236996844   17.14685188155233    8.52373588090009
C         1.72530658608684   21.72027238751319    7.84427341031757
H         1.48935969238718   22.45638918454344    7.08004807885438
H         2.80597052552432   21.67319218342924    7.96692251454001
H         1.29917332351429   22.05513464256945    8.78976845798817

