96
CSD_code = COJHEQ | q = 0 | S = 0 | Stoichiometry = C52H40P2PdS | MND = 4
Pd       -0.56433642349116   -0.16099380099078    3.80439510531452
S        -0.11494329607832   -2.12497336235590    2.67322564562305
C         1.04736351117208   -2.35428736612852    4.06595866764253
C         1.00273828412862   -1.00037797692182    4.75164095242370
C         1.80275264007033   -0.92507935581678    5.80633026077558
H         1.93403498490986   -0.07505076113197    6.45881281920960
C         0.66292117982016   -3.34392860765484    5.13318554346131
C        -0.41444738377604   -4.20374942772909    5.11713091990644
H        -1.06265988367213   -4.24030937658382    4.25279113804737
C        -0.64488517259395   -5.00974402626615    6.22354883724343
H        -1.48532947852520   -5.68924083203284    6.22377690929915
C         0.19223796240729   -4.94803058591065    7.32326272539261
H         0.00420866071634   -5.58121413312115    8.17887526441997
C         1.27017449847027   -4.07178418176418    7.34254363326877
H         1.91588484230732   -4.01699166268346    8.20799905235735
C         1.50090550739698   -3.26472672176036    6.24935328682009
C         2.48118303125899   -2.64699339598091    3.72971136231508
C         2.99652941046451   -2.94150625853269    2.48534115712484
H         2.33975555709274   -2.99534107843658    1.62895772253839
C         4.35979686847427   -3.16562057249303    2.36151075096890
H         4.77653191227455   -3.40245946965379    1.39306989419391
C         5.18787644665395   -3.08774448121295    3.46768069345757
H         6.24857346690936   -3.26407286888511    3.35890983697279
C         4.66818114940002   -2.78275403497328    4.71822707988052
H         5.31663721965442   -2.71875677354774    5.58112165465710
C         3.31310041181842   -2.56073243731843    4.84717852747750
C         2.57235769386276   -2.21097084337404    6.11105390957516
H         3.21797563438942   -2.12865187761051    6.98563157069824
P        -0.65089846804193    1.52433857315799    5.32539704316023
C        -1.68833012451270    3.01800898252617    5.22931586293332
C        -3.04918887015460    2.91202788091854    5.50891915317440
H        -3.45204689362649    1.96529407038763    5.84328515175093
C        -3.87734589379349    4.00831580010126    5.37028620958556
H        -4.93057576126255    3.91632728758741    5.59329551786186
C        -3.35772725163291    5.22197609222837    4.94840162034046
H        -4.00465974303018    6.08059328277342    4.84518063387087
C        -2.00826938048141    5.33047636436769    4.65746129999142
H        -1.60058275016224    6.27414946123995    4.32565172990012
C        -1.17622662848532    4.23378654900795    4.78813425849404
H        -0.12512060996804    4.32009006717618    4.55058780658817
C        -1.14063027211617    0.83579600623959    6.94072725283747
C        -1.43258915400393    1.62596151433452    8.04908832832004
H        -1.40264971800013    2.70406358045813    7.96895105748720
C        -1.78851505736471    1.03203708253074    9.24647807273352
H        -2.00835980319393    1.64919372148314   10.10572107354233
C        -1.86675449998736   -0.34815109194129    9.34687491549398
H        -2.13880872180398   -0.80487456756060   10.28702193539601
C        -1.61191880700838   -1.13914312437809    8.23840801145388
H        -1.68658270612260   -2.21463535807186    8.30425822931278
C        -1.25820816813257   -0.54931331877993    7.03893498178296
H        -1.06431089764551   -1.17387860160261    6.16191488783779
C         1.00848777995411    2.25226772325031    5.52498492929787
C         1.41306963721800    2.98184475777421    6.63651148384447
H         0.73831168019877    3.12631301013795    7.46717243515427
C         2.69121273573556    3.51002085268927    6.68469568990220
H         3.00749197790948    4.06817157783678    7.55410347053289
C         3.56553871183250    3.32249448486141    5.62630634923869
H         4.56252612164663    3.73531276992683    5.67213762238798
C         3.16476662540057    2.59931129124852    4.51413336821392
H         3.84889965443534    2.44486670191888    3.69285346552528
C         1.89147984084029    2.06413765283529    4.46443488554699
H         1.57527198245702    1.45971798122199    3.60972087448896
P        -2.34602492604262    0.43799855246471    2.48543896604134
C        -3.98792432079138    0.33934857641288    3.25681995971162
C        -5.16399139857417    0.73284137872933    2.62796376412975
H        -5.13279908767477    1.11904736969107    1.61838947019602
C        -6.36937188224453    0.60490516163914    3.29361119547093
H        -7.28490744067010    0.91832989720067    2.81297216242948
C        -6.40943334236116    0.06611791888516    4.57088768527021
H        -7.35545712739934   -0.03028336243420    5.08324803291378
C        -5.24438300300092   -0.36703873479650    5.18301604288863
H        -5.27904157081076   -0.80873996729273    6.16854616795031
C        -4.03598605339224   -0.23247340429050    4.52402029225144
H        -3.10591103906785   -0.58217486581717    4.97665357362908
C        -2.03653402948367    2.16623279549682    2.01423807090434
C        -0.69660271724215    2.40039755341022    1.69910478809975
H         0.00436038102505    1.55755056539720    1.73405841544623
C        -0.27525451996977    3.66425855552277    1.33764883673870
H         0.76103542576632    3.84395626209041    1.09066103534174
C        -1.19155390952496    4.70507671503858    1.29724101771666
H        -0.86819899407142    5.69638570667625    1.01548437822665
C        -2.51726795550127    4.47930121768472    1.62605506398289
H        -3.22495390732376    5.29521482141933    1.60316874027256
C        -2.94564124062311    3.21281713214646    1.98804381531626
H        -3.97682957064516    3.04818929576649    2.26339030417312
C        -2.69498426043788   -0.36175891074152    0.88830015895303
C        -3.01672467387038   -1.71603448799239    0.94301764200623
H        -3.03612439811934   -2.21469185562702    1.90434892136158
C        -3.28335015499127   -2.41113998437692   -0.21961872165290
H        -3.52671577364898   -3.46247592983645   -0.17686609584404
C        -3.22874222561087   -1.75934029806118   -1.44198916744654
H        -3.43373961383178   -2.30255206981627   -2.35287662479916
C        -2.90305450368880   -0.41463003262918   -1.49862765486767
H        -2.85576087022830    0.09041741697385   -2.45282384482888
C        -2.63240356526954    0.28855715862716   -0.33755287504987
H        -2.37150353464208    1.33717706732914   -0.38524804548960

