83
CSD_code = COJHAN | q = -1 | S = 0 | Stoichiometry = C33H41MnPS4Si3(1-) | MND = 5
Mn       22.04440716632168    5.82523677528084    7.12299890288847
S        20.26967837552533    7.05567540550129    6.70629769464852
S        22.32318925306268    3.92858475522770    6.10380927058827
S        23.80615207340950    6.67828874742014    8.13782867444616
P        22.85045135009176    6.71712337879848    5.35327379607895
Si       17.94475566416483    9.07827112079852    5.88566120086005
Si       22.58570593932302    1.36185127599423    4.18286371159364
Si       26.64658333229747    7.76168233752496    9.17751224003198
C        21.82280264280116    8.07561797207931    4.71918678179522
C        20.58167175730167    8.14002146042904    5.37223332182113
C        19.61759388593263    9.07735703250993    4.99350144840432
C        19.95123891023929    9.96202924367366    3.97618044263663
H        19.22451450595619   10.69887480227574    3.66559461467322
C        21.19370198240290    9.93893079946928    3.36029765612416
H        21.42842339441914   10.65931699773935    2.58816749310261
C        22.13564321843580    8.99297888895179    3.72904312427319
H        23.10930178081039    8.98022847294101    3.26037900436934
C        16.85581934285452   10.42706541612963    5.06860753488657
H        16.70219847694338   10.23629240332500    4.01156557887307
H        17.29127728436410   11.41567789291892    5.17007442261807
H        15.87899331893334   10.45253572058282    5.53991975621739
C        18.12237909615233    9.54319905563367    7.72664202524633
H        17.15144075627385    9.61695331811866    8.20839160756158
H        18.63170764595662   10.49471237127626    7.85264607841650
H        18.69716946366493    8.78780372410496    8.25061799452742
C        17.03198795133444    7.41801601709131    5.66874130968935
H        17.53726199226805    6.63206987298192    6.21955463265959
H        16.99227191417816    7.11763777664681    4.62524043386923
H        16.01194015291506    7.47818173293703    6.03787996986312
C        22.98558852856482    5.51297555251372    3.99204828973498
C        22.77382983318265    4.19729478401994    4.42626955995201
C        22.86980919084521    3.12266182659776    3.54185011977663
C        23.16024487043942    3.41294379401732    2.21355102182593
H        23.23771595163268    2.59947891050842    1.50678048763713
C        23.33489818159199    4.71280088793719    1.76706054628549
H        23.53709240683066    4.90361526344605    0.72165680357570
C        23.24762431329372    5.77103083496841    2.65675767516893
H        23.36364861457361    6.78800031578222    2.31065291361636
C        22.82642312976482    0.15835542876214    2.71229973272230
H        23.82309114130977    0.23159823674527    2.28958178872790
H        22.11155829011895    0.34336768944169    1.91726412844199
H        22.68776145054011   -0.86597063335381    3.04192487859997
C        23.87776254910109    0.89487647449380    5.50582700155637
H        23.78758470472649    1.54696018111977    6.36734178988372
H        24.89076719781620    0.98889577032726    5.12403023316726
H        23.74289739994124   -0.12825269134052    5.84522757017602
C        20.80242581103373    1.11829902279005    4.81496522200479
H        20.58713588405308    0.06899336112382    4.99721415305864
H        20.07349347157495    1.48885394321001    4.09944930369600
H        20.65277851962881    1.65565563280330    5.74458472220258
C        24.53011679872024    7.36019485761293    5.60312768862738
C        24.91341629178131    7.33643679874618    6.95346119982150
C        26.16951753283533    7.80921686782341    7.34464176556382
C        27.01873769694990    8.27673441334842    6.35001921929365
H        27.99616800682746    8.64325074187168    6.62889163389576
C        26.65796792589921    8.27361672239894    5.01122896115250
H        27.35286890652259    8.62727547143135    4.26144941211123
C        25.40894196532792    7.81233244668005    4.63215216680325
H        25.12834937493878    7.78847760456060    3.58888554339134
C        26.73627847390348    5.97094230023480    9.82746856404203
H        25.76101948342626    5.50090658774951    9.76900927957609
H        27.06065597468389    5.94159318891367   10.86394248435476
H        27.42856829049390    5.37012553132458    9.24388505568622
C        28.40456241015093    8.50560626725091    9.34766261885870
H        28.71022529273174    8.50677768368731   10.38869119831915
H        28.44497120548413    9.53129549187550    8.99591146663817
H        29.14119215192181    7.93305717657996    8.79366710898439
C        25.48342211668532    8.84688267108516   10.22968211929535
H        24.47131286061282    8.46101118974681   10.18791512850672
H        25.46209225151697    9.87220067047507    9.87056536312722
H        25.79334374420477    8.86423514080875   11.27078842929433
C        19.48001857226942    4.76523984521890    8.76749474987279
C        18.57831920346388    5.10572252781481    9.77478498055291
H        18.95852349374918    5.52318835842275   10.69612694106462
C        17.22300470808888    4.92722164131963    9.58510606562383
H        16.53195197643272    5.20559453746382   10.37057018334013
C        16.74372046621198    4.39983824011092    8.39668585673303
H        15.68061690914485    4.26623766897424    8.24849792037170
C        17.63738162776892    4.04852265920568    7.39644005322361
H        17.27287043309247    3.63614559960102    6.46476860098558
C        18.99352893490126    4.22313225672755    7.57790072231890
H        19.69037699474351    3.95851554354195    6.78930734973404
S        21.18836385579634    4.99702194314756    9.03792150424771

