72
CSD_code = COJJOD | q = 0 | S = 0 | Stoichiometry = C33H28N8NiS2 | MND = 4
Ni        8.21037099386609    8.61419127782713   10.79241480310941
S         5.09728928320331   11.59268383783228   10.45097574660743
S        11.50892443845041    5.95516954760360   10.07894966994536
N         8.75785935491091   10.39051804561494   10.54583371340961
N         7.72930330433934   11.25994586465966   10.51377805788874
N         6.45643494844868    9.33629984792099   10.77829769113217
N         5.20379572559535    8.88939625839689   10.64152569980843
N         7.85493271793213    6.73879278442697   11.04919693146216
N         8.91664227146998    5.97143709618557   10.65027991767255
N         9.92654506739791    8.04894336912113   10.54577586488170
N        11.05686108017591    8.68748929848234   10.39403740512879
C         9.98391860033428   10.86298106148392   10.49967217996101
C         6.56732167462631   10.66489700009483   10.58075460992540
C         4.78984839993362    7.77204212934276   11.09432524837149
C         5.66007131609342    6.89741131559218   11.98922842835084
H         6.16142483208292    7.58915489207321   12.68163434761575
H         5.02302422566503    6.21637309810984   12.54827756410460
C         6.71908059062528    6.14509887569892   11.25191778485880
C         9.98066066085999    6.69227322692620   10.45515816720225
C        11.12818932964271    9.98476843679610   10.38962716337725
C         5.79946882372801   13.23954991310603   10.15152991625702
H         6.24349175496569   13.26486445182554    9.16224878709474
H         6.55049382943765   13.44815150881689   10.90534530163027
H         4.97582227101113   13.94264596565000   10.21603631156658
C        11.00193992099171    4.21214617054983   10.11947825590578
H        10.22929177717323    4.04770788611481    9.37652813501252
H        10.62378587047002    3.97323870653444   11.10739716059106
H        11.88700049650193    3.62744690513768    9.89261684176246
C        10.20896881310690   12.32044842632853   10.58351680137848
C         9.59161798319224   13.19317935868101    9.69355672160791
H         8.96594206132927   12.79818968698340    8.90832445603822
C         9.79725079708701   14.55585881014251    9.80262398756714
H         9.32052452739332   15.22754517280645    9.10347042455964
C        10.61064067529093   15.05995258701937   10.80355970476754
H        10.76809829141250   16.12511558179869   10.88807387779202
C        11.22098322720862   14.19521227200867   11.69678217280104
H        11.85330832801370   14.58413300054297   12.48121061979540
C        11.02456997538733   12.83145290499842   11.58895452484599
H        11.49569240600309   12.15774376679559   12.28961847291133
C         3.41995419250433    7.37977792153460   10.78232406263467
C         2.49334549468294    8.36349697279903   10.42506399973391
H         2.81976594575569    9.39145888002688   10.39939295654179
C         1.19160487460283    8.02234357949524   10.12082416711900
H         0.48341305648450    8.79262310139363    9.85311172862213
C         0.79011178370911    6.69556064437347   10.15912336141582
H        -0.22938058612246    6.42892839634625    9.92258816520529
C         1.70449868004550    5.71227755926732   10.49659157363302
H         1.40149992052501    4.67528967390568   10.51542768105647
C         3.00918315162550    6.04702025924520   10.80884018519033
H         3.71111382148135    5.26021028082843   11.04289328851603
C         6.47142084679098    4.76298536415236   10.82414637730880
C         5.89408558847239    3.82738473610607   11.68112822416133
H         5.65599712099971    4.10015401066796   12.69935071760203
C         5.66145814791954    2.53504721626642   11.24887485542684
H         5.22085252849719    1.81630248215194   11.92411807900532
C         5.99140539839660    2.16160403595588    9.95669354645650
H         5.80387997558289    1.15274205833863    9.62065397913267
C         6.56492529878396    3.08536985399107    9.09813823845259
H         6.82165900319894    2.79879976347747    8.08900490582754
C         6.80911099597945    4.37492759491193    9.52805076308879
H         7.24475725032432    5.09879412479449    8.85625374143438
C        12.48727663151689   10.52884757547211   10.22841933557835
C        12.76708635404367   11.57531501568196    9.35393754428528
H        11.97821196112872   12.00891727029694    8.75824130005811
C        14.05928210937056   12.04917391637345    9.22598065634917
H        14.26412595377102   12.86317463106537    8.54596599688639
C        15.08832830086609   11.48255741940450    9.95916621906681
H        16.09534110027052   11.86056671815008    9.86089932241593
C        14.82267689448281   10.42166815638231   10.80893460425498
H        15.62394767573073    9.96597431468115   11.37213679695579
C        13.53263339249584    9.94456407868515   10.93974242489493
H        13.31743649072443    9.11529205375150   11.59634773298809

