65
CSD_code = COJJAP | q = 0 | S = 0 | Stoichiometry = C28H26N8NiS2 | MND = 4
Ni        2.53482506840334    5.79305797250810   13.09983434060305
S         3.68214600162003    9.87618558366428   13.94198187905203
S         1.11202566986835    2.18845393036802   11.25447739920222
C        -0.12905272391875    6.87434508492157   13.00961102600790
N         1.16342088831822    7.07011171888684   13.15154721288235
N         1.60028421070257    8.29870567673066   13.48208309699059
C         2.90243533389221    8.35134203502080   13.61250135518957
N         3.66854655820469    7.25123159126294   13.52574918274847
N         4.98964846945284    7.51771394979983   13.51931720531235
C         5.87451203295057    6.66598961281848   13.82260544126662
C         5.54924403868960    5.27402091746503   14.34511459864706
H         6.43629210119748    4.86589520527898   14.82443230786212
H         4.74098176352537    5.39171184576852   15.07977737012247
C         5.06692715904506    4.34827434971761   13.27342845944644
N         3.79601919276498    4.33779964280472   13.01052147788724
N         3.29935290581179    3.30113005375940   12.26753535307444
C         2.02300901078282    3.43462880590526   12.05394431190595
N         1.36473407143599    4.55482028719031   12.45361120340652
N         0.07211886774406    4.57491189395319   12.25294111929806
C        -0.65449200134885    5.61805189649784   12.51932631311877
C         2.23926139430375   10.97755570022507   13.88663813701031
H         1.88346944638209   11.05109177514325   12.86468993222855
H         2.57723370339186   11.94552824873754   14.24121504791177
H         1.46116270467718   10.57719825923416   14.52688513467469
C         2.44681818675709    0.98717997001977   10.98446959975189
H         1.99787941704719    0.13271194921636   10.48954695970166
H         2.86938445901153    0.70194567533944   11.94151472889289
H         3.21116914233837    1.43687083418904   10.36036398719961
C        -1.07610477153746    7.94687445065749   13.37699784984187
C        -0.96643745013910    9.21950892560597   12.82627132015482
H        -0.19954786335438    9.41790096912022   12.09387937926547
C        -1.84810118398585   10.21635128643103   13.20049745868467
H        -1.76079187630230   11.20070173992650   12.76375562011281
C        -2.83963787703078    9.95641025823662   14.13152883568837
H        -3.52598915310382   10.73744431703382   14.42391999003980
C        -2.94831746753462    8.69275186021574   14.68785256596897
H        -3.71802027900059    8.48626281406841   15.41686350272476
C        -2.07336275208650    7.69054669401206   14.31366567010419
H        -2.15446680278469    6.70716040934417   14.75319708443350
C         7.31142634807629    7.03615214867105   13.68830214834598
H         7.39631527624414    8.04856806677878   13.30547142558121
H         7.81008013175943    6.34608461403880   13.00729519049324
H         7.80966209567608    6.97579367869038   14.65532013303840
C         6.02174399134128    3.46981309044546   12.58846773082879
C         5.94801740754142    3.32605433698459   11.20238917018478
H         5.19300785495330    3.86887184574288   10.65444952126379
C         6.84639459180728    2.51922451216492   10.53256977087743
H         6.78403609459269    2.42338544475308    9.45859780313945
C         7.82565419085844    1.83461580177535   11.23408603509275
H         8.52471559746492    1.19991893818169   10.71026913144954
C         7.90328755197363    1.96550466894535   12.61053336767369
H         8.66066579612860    1.42873624956875   13.16273675356649
C         7.01319159525662    2.78033563014861   13.28466014804233
H         7.06953144396394    2.85129121965793   14.36103592825704
C        -2.09378544473508    5.45438416639239   12.25323805223732
C        -2.83817785873093    6.42633739702116   11.59039440237517
H        -2.36110971773848    7.33052033016348   11.24388607985435
C        -4.18542127310240    6.22955156452662   11.35212643808531
H        -4.75338877826461    6.99174608874306   10.83882986252507
C        -4.80541055059094    5.06147020383071   11.76299304197548
H        -5.85998673789426    4.91506719426588   11.58099199761232
C        -4.06502808907604    4.07751482073280   12.39687500233139
H        -4.54023436337211    3.15814485806855   12.70643866884780
C        -2.71784624771090    4.26956393195714   12.63625388504571
H        -2.13242050261432    3.50617100667258   13.12579485285636

