37
CSD_code = COJROJ | q = 1 | S = 0 | Stoichiometry = C16H14N4O2Rh(1+) | MND = 4
Rh        9.37241191124203    8.78144866688304    9.05680243874701
C         9.38716557066962    7.45007150560146   10.57263779550657
C         8.63484477179555    6.34453659010003   12.36347809052808
C         9.86007468445596    5.85842840524933   12.05578323843844
C        11.56762203019916    6.33981326042429   10.30675647338584
C         7.16349774252210    8.08065765924071   11.41009584960091
C         5.95194061510734    7.39821461350426   11.41984409132302
C         4.75434327475461    8.08890673412979   11.42441360536207
C         9.27338032302618    7.43359695546500    7.77152969169177
N         8.36485572263256    7.33448353485852   11.45161705962700
N        10.30189303888599    6.54832816760586   10.95856000844727
O         9.17089812678748    6.60113872771865    7.00425882097445
H         7.95731803178410    6.08609577616162   13.15045360788675
H        10.43939858193451    5.09037478149956   12.52469366868722
H        12.38474257196394    6.45270600587571   11.02005680287907
H        11.61561917717687    5.33878383412386    9.87534521876117
H        11.67572275896723    7.08359265982625    9.50966035711447
H         5.95961137528404    6.31880588829433   11.41786291529251
H         3.82338984256359    7.54530149273558   11.42735641031381
C         9.38706262276359   10.11268164240700   10.57277422335457
C         8.63532184901815   11.21795662994915   12.36401361812327
C         9.86050722817139   11.70402679216349   12.05606311675878
C        11.56736742418160   11.22297048164075   10.30620817635705
C         7.16355793934991    9.48217814944206   11.41049009079831
C         5.95206266803200   10.16472135015828   11.42074466506347
C         4.75440485898925    9.47413065130897   11.42492708957044
C         9.27293144585694   10.12941250032977    7.77167381043058
N         8.36499846435830   10.22819934264982   11.45204486390559
N        10.30197141481314   11.01427414730096   10.95860827882614
O         9.16992641097792   10.96174572422170    7.00433647385833
H         7.95805990658186   11.47628844853585   13.15125215879183
H        10.44001082387359   12.47196289439684   12.52494562525288
H        12.38466084911165   11.11319811900434   11.01978126606569
H        11.61387398418370   12.22293824482406    9.87212758755294
H        11.67652599807395   10.47728322193707    9.51102074596815
H         5.95982652581383   11.24412956565755   11.41944251867570
H         3.82349943409318   10.01781683478278   11.42833954607919

