120
CSD_code = COJRAX | q = 0 | S = 0 | Stoichiometry = C49H66N2PScSi | MND = 5
Sc       13.15336477183025    5.78916565229913    6.35605865277998
P        13.03963244922248    8.38819948361634    5.65685985697881
Si       14.88965826777421    8.59965847880504    8.31742583674387
N        11.66514768967339    5.16054062667618    4.94752198942632
N        12.78901047567626    4.00067409966523    7.46528900878130
C        10.90866768113715    3.40352595270471    3.38379389656094
H        10.34519877855277    4.20303534967894    2.90931869736164
H        10.23764591809702    2.57433090682422    3.60049977957419
H        11.66449661118975    3.04243084839887    2.68774992534353
C        11.58581788629185    3.88015431317282    4.65065114235070
C        12.07403250744142    2.85499173564445    5.47123362761295
H        11.97004746727169    1.86185131032324    5.05580851689668
C        12.58719754375691    2.89188212953932    6.76846883593151
C        12.88528034024378    1.53279865722237    7.36666396091505
H        13.84613371448265    1.18529456113960    6.98809472546903
H        12.13100054841289    0.80666846928959    7.07188796362392
H        12.93563704646627    1.57264065620338    8.45179469048020
C        11.05107460563265    6.12657226828784    4.11089905472303
C        11.65673774441589    6.57268059127490    2.92363041150796
C        11.00485052956323    7.53526484389239    2.16507740612200
H        11.45691195197131    7.88469022738696    1.24915727544127
C         9.78528886400972    8.05289395997029    2.55470208734414
H         9.29052782719837    8.79475129356774    1.94482185250520
C         9.20123165070888    7.62222321152788    3.73117306428373
H         8.25071412214416    8.03564883436175    4.02817752162651
C         9.81940470437437    6.66780603484533    4.52359558655332
C         9.18427078996177    6.18590876236904    5.81018123810001
H        10.00255533937064    5.94224716054567    6.50792505759381
C         8.37843446379026    4.90524009808537    5.56725095265756
H         7.63224762550843    5.07058717748518    4.79211070367985
H         7.86749506923570    4.60634409915678    6.48055708240413
H         9.02819057354140    4.09200697244773    5.25765467832261
C         8.29116246007693    7.23768426862531    6.46718036309110
H         8.78500162297413    8.20576366164328    6.49451898579418
H         8.06289779736193    6.94187387102278    7.48930165217753
H         7.34889062080729    7.33737326482949    5.93276486961152
C        12.99432442803115    6.04668091129756    2.45095362161739
H        13.35889585812485    5.30415601681064    3.17460148345798
C        14.02626579096763    7.17526007668080    2.38333209744893
H        13.69723758189620    7.97117498769440    1.71985962799303
H        14.97359288334538    6.78960461674307    2.01261817203561
H        14.18819105028009    7.59808192789316    3.37509747689123
C        12.87203816644480    5.38342530877852    1.07470595306156
H        12.07479889638234    4.64495993039207    1.05973016513664
H        13.80607937435143    4.88948215741721    0.81525785542836
H        12.65793590381061    6.12582038016340    0.30950163905253
C        13.13835286040610    3.88620229007745    8.83795502448441
C        12.11363604965608    4.00276184438013    9.79627140982877
C        12.43390792480163    3.88984298220563   11.14052221969647
H        11.65806932225154    3.95340697338970   11.88643300644310
C        13.73941429845854    3.68824235857120   11.54694598872796
H        13.97167094394578    3.60466229049784   12.59821492375825
C        14.74242473405771    3.59138250511122   10.60414399329888
H        15.75938184510916    3.43463849990293   10.92973529786282
C        14.46524384217673    3.67316598403755    9.24631069127778
C        15.59935602549020    3.53762870934490    8.25508927036900
H        15.18820558939287    3.55658336844934    7.23623844716698
C        16.56029016256353    4.72160780977635    8.38850804641580
H        16.04861332781334    5.64604706403651    8.12243215032298
H        17.40811734439861    4.58912751824243    7.71971878318408
H        16.93495410946302    4.80709421890269    9.40585373175879
C        16.35659326635903    2.22056648320753    8.45208127477941
H        16.91803992512095    2.23123112449062    9.38311486085689
H        17.05992568308613    2.07183160075094    7.63550757577908
H        15.67394196590941    1.37445826509000    8.47890910150281
C        10.68277183700511    4.22837240413168    9.35323161438409
H        10.70890014781102    4.85343252256331    8.44717873934185
C        10.01064962465223    2.90176880599853    8.98271126620102
H        10.47427281936384    2.46397475162152    8.10427606398917
H         8.95713534370679    3.06682558943489    8.76522412066904
H        10.08722206550924    2.19622912693760    9.80816546997548
C         9.83743468952905    4.94072212198984   10.41018604865676
H         9.55391971101150    4.25536866164050   11.20624585465270
H         8.92161399752686    5.31748816328212    9.95780011197326
H        10.38100400788454    5.77345551276594   10.85147464390391
C        14.40466488459294    7.81364168395562    6.67838800761930
C        15.42685632896861    7.06753843499090    5.84024774598963
C        15.09752592644625    5.81191099725238    5.47896177950612
C        16.06532528149309    4.98093107567741    4.65587996641876
H        15.66185168588518    3.99566036168567    4.41144705845466
H        17.00573713922388    4.83971199895626    5.19794374892347
H        16.30285874061308    5.49283848427689    3.71862442892882
C        16.71235063795674    7.74865885736507    5.43376545387988
H        17.57677661089814    7.17198306338594    5.76497373652427
H        16.77949318398308    8.74821192628386    5.84904377426577
H        16.76162002301999    7.82467333394186    4.34584144502325
C        14.12936023913658    7.50001952375837    9.71111418629474
H        13.18402238313518    7.90660978857092   10.05898641084269
H        14.78796354620238    7.43828845317983   10.57185373960299
H        13.94671869188616    6.47786175250940    9.37130913550763
C        14.30379482928445   10.38647297865291    8.68765958146748
H        15.02775022737814   11.12714755915664    8.36254031203302
H        14.16120005681343   10.51814563184408    9.75620365647491
H        13.36209539457016   10.61556119312877    8.20168275602842
C        16.77517208727614    8.61939875473816    8.66000953815434
H        17.25018989785008    7.68124355289260    8.39870844888156
H        16.95255509929927    8.79444885117960    9.71681748230933
H        17.28161176276939    9.40836382562788    8.11356332149990
C        11.80194922344405    8.90850796131368    6.89844697876265
C        11.17893401549740   10.15476410050330    6.91155903690359
H        11.44408655232588   10.89416096744647    6.16991088725299
C        10.23590167442158   10.46026955453119    7.87638055085194
H         9.77020042099912   11.43533887998365    7.87878204275001
C         9.89595497068798    9.52862615519693    8.84238732281963
H         9.17008647282417    9.77318093165858    9.60345550294133
C        10.48698652351055    8.27455404407397    8.82241871582755
H        10.21521835483743    7.54252629311300    9.56652656884967
C        11.41953638944204    7.96723688854518    7.85154675062838
H        11.89719968119154    6.96691286605791    7.82981250200516
C        13.40703564432720   10.03795689352461    4.90283518248798
C        12.57402945784735   10.46319349647324    3.86964642471818
H        11.70714645390900    9.86519147565955    3.61596743172056
C        12.84635297714096   11.63606843446189    3.19220531992385
H        12.19108256412084   11.96823133423572    2.39891168232258
C        13.96492533404450   12.38450201029848    3.52543383446487
H        14.18056413502476   13.30001130929705    2.99340002430517
C        14.81118048360012   11.95149732547276    4.53301256226010
H        15.68769495340291   12.53138855610778    4.78688028706411
C        14.53923562509832   10.77720029717972    5.21123448000205
H        15.19562197527510   10.42628844464746    5.99404142268652

