52
CSD_code = COJRID | q = 1 | S = 0 | Stoichiometry = C25H21N2O2PRh(1+) | MND = 4
Rh        9.71575185703015    3.52778513734605   10.17857317688364
P         8.02185323716270    4.65483071379067   12.66103557565166
C         8.40060771866206    2.20709576610711   10.97508921715469
C         6.50001302179347    1.07661956356110   11.32687935629378
C         7.53435374275409    0.23069344158594   11.54100638989351
C        10.01720175995223    0.41043218517354   11.42771155616013
C         6.32728011240299    3.47360252698422   10.75511506705963
C         5.26851730984818    3.47073749931130    9.85834878592541
C         4.54824595122617    4.63109506226062    9.63270147015864
C         4.87528681612496    5.79298926045541   10.31216450688662
C         5.91770196091932    5.79576830551771   11.22249928421849
C         6.65912333088807    4.64139128657992   11.45453730068376
C         7.68765987325220    6.03061446666385   13.80325515081545
C         7.18839250810729    5.82185324474859   15.08497239078398
C         6.97870669703830    6.90000784965700   15.92693427310182
C         7.26530622227984    8.18627837782135   15.50062111438126
C         7.77090805145311    8.39835093020573   14.22743290118763
C         7.98725372957717    7.32631555687322   13.38216899595929
C         7.88145762509541    3.15163695467066   13.65752950193995
C         9.02010712951449    2.48088975112076   14.08729524145682
C         8.89373449711430    1.36217915047743   14.89267419819550
C         7.63806972059086    0.91434444474478   15.27120155354739
C         6.50144082367490    1.58325303455360   14.84350605852211
C         6.61882055830205    2.70161307599675   14.03871003677374
C         9.58452322969737    4.81962044770852   11.83155315066467
C         9.70076687336869    2.48402141082706    8.63271403103984
C        10.96453874091207    4.71629438583527    9.47161854278782
O         9.60955969883380    1.88903630325004    7.66483082882801
O        11.73947664384053    5.43428885638425    9.05284164780497
N         7.04936877072273    2.28762616935879   10.98941016021902
N         8.68334136955814    0.93687157795233   11.31477990962801
H         5.44360736576098    0.92476253712431   11.40386753401280
H         7.53854831319677   -0.80010955546796   11.82886903588706
H        10.19398038459914    0.04067988033473   12.43862544942326
H        10.72721537472061    1.21857230665424   11.20296305860118
H        10.16718399626183   -0.40767546818460   10.72174516824691
H         5.02377168363474    2.56125146021839    9.33060627358999
H         3.73300516288262    4.62575369815994    8.92678949216132
H         4.31365826570473    6.69741046192180   10.13942716830688
H         6.15036476362088    6.69803120110562   11.76859190047069
H         6.96815893653019    4.82212039568317   15.42889455999035
H         6.59317591407902    6.73253410198380   16.92077637439626
H         7.10077247503580    9.02309886085424   16.16117873008180
H         8.00057030888862    9.39881810763659   13.89442470777909
H         8.39023031602769    7.49741007022030   12.39286285484077
H         9.99864770382081    2.82719480879859   13.78668621017234
H         9.77725698806238    0.84433229516876   15.23421247874137
H         7.54394717045189    0.04518407321536   15.90330270834171
H         5.52430591245999    1.23605823126003   15.14190785715557
H         5.73657697219546    3.23344589769497   13.70516351424357
H        10.36084626531500    4.72651653678663   12.60621356332529
H         9.60330614501005    5.87117336130349   11.50507998576664

