136
CSD_code = COJRUR | q = 0 | S = 0 | Stoichiometry = C51H76N2O3PScSi2 | MND = 5
Sc        1.14284397401116    4.84727007797433    9.80979071975147
P         2.92804461274873    3.14673863410538   13.57196685508338
Si        0.71522550410579    5.03079165269590   12.82792948873158
H        -0.36918551727879    5.98051912810429   13.13752799788456
Si        0.96474588093518    4.27852599682954   15.94186473803258
O         0.11193641410684    4.06956401300307   11.56824561262792
O         1.66740067192658    5.82494049603251   11.67270116012813
O        -0.18859855457866    4.21271152128981    8.73432809034317
N         2.95682213961122    4.03358586710498    9.12773370868749
N         1.65994742669296    6.63916735366687    8.74078488199905
C         3.89634819652898    3.14051518095318    7.01335048987861
H         4.44637272250039    2.46107974179682    7.65893833790006
H         4.59939838649581    3.67230804645098    6.37468564906044
H         3.24294992434531    2.56169643763288    6.36095209599604
C         3.06458748582050    4.12446530942525    7.81128938408015
C         2.45918664123816    5.13130171098373    7.04862399370365
H         2.54803675199481    5.01535075275773    5.97660434304231
C         1.85962760985635    6.32264617874253    7.47007280530057
C         1.46138671417598    7.26797974250445    6.35545020140482
H         0.68684315584986    6.79614468071034    5.75114258336143
H         2.30813455622653    7.46743039606878    5.70256567941859
H         1.07763633101003    8.20702225458821    6.74644336214942
C         3.81289756146922    3.12977343038849    9.81912880721231
C         3.40229945994984    1.82264125951437   10.12309240331388
C         4.31058777910668    0.95226075902452   10.71080328484448
H         4.01361342290861   -0.06064009223062   10.93367322036748
C         5.60064964696629    1.35227975548125   10.99574047359091
H         6.30320452486126    0.65159172209096   11.42288495098954
C         5.98207710747045    2.65658146900191   10.74657642265310
H         6.98304516433142    2.97263656538703   10.99588941009717
C         5.10059439796729    3.56352609665334   10.17889523146528
C         5.53307302913300    4.99583077149183    9.96139660736691
H         4.64091550861282    5.58529367188343    9.71392340997077
C         6.15512506903954    5.57334004757001   11.23550765129226
H         5.51134275313011    5.39234201851479   12.09239328698297
H         6.30261703286621    6.64571841061021   11.13102994079327
H         7.12311695306232    5.12329025284480   11.43927911644078
C         6.52199489876742    5.10274165362727    8.79780986561617
H         7.39405015735626    4.47860451853372    8.98055735135469
H         6.85445209256198    6.13207837027853    8.68181423830904
H         6.05957396517653    4.78430230890806    7.86778216115718
C         2.00483589782432    1.33580599136497    9.80705447051024
H         1.38226224117018    2.20345940303812    9.50676015083404
C         1.36606838539459    0.69904934376735   11.04272620751003
H         1.88815026892258   -0.20822827917770   11.33641284835511
H         0.33006333075699    0.43383785525244   10.83863688649335
H         1.40169990971470    1.39584750194315   11.87740583309389
C         2.03674048248403    0.32355761237364    8.65750865651469
H         2.46200918070373    0.76305445543374    7.75937958345487
H         1.03120083619044   -0.02208636491240    8.42788137231966
H         2.64085344127441   -0.53865683290409    8.93307893341721
C         1.43328823649952    7.98254585230807    9.11208869494140
C         2.46812451145932    8.93253382179446    8.98394026279169
C         2.24474602753281   10.23719540562219    9.40039007137934
H         3.03266887069226   10.96763398965186    9.29932237840893
C         1.03250952902618   10.62518604611060    9.93241823102044
H         0.87279057082272   11.64781340660742   10.23933975517848
C         0.02275867387505    9.69185954583941   10.07001774823209
H        -0.92129109539305   10.00678369930479   10.48405371900576
C         0.20219652590198    8.37301247787579    9.67741764358009
C        -0.93755409872556    7.38296682627338    9.80346121275676
H        -0.50931643861803    6.37021787934763    9.99105595048875
C        -1.71371138392122    7.32947056268844    8.48156153322488
H        -2.08611393775355    8.32080725229384    8.22538477201108
H        -2.55979351497500    6.65089831269782    8.56775602131705
H        -1.07490873952146    6.97551911174269    7.67676362724960
C        -1.89915644401265    7.71181739918316   10.94723574300102
H        -1.35661242249682    7.89818705816135   11.87140718107641
H        -2.57919356471451    6.87802845065540   11.10466528693031
H        -2.50306400119571    8.58587467171006   10.71121077811873
C         3.83293117205947    8.58367591268828    8.42924238767079
H         3.84701382349572    7.52413753306331    8.15661961036135
C         4.15697964478638    9.41209410816207    7.18162287404835
H         3.35603663649018    9.35548421925471    6.45064512749842
H         5.07288904497543    9.04811570323245    6.72102749324654
H         4.30171747105392   10.45795991116731    7.44107034921843
C         4.91852101595766    8.81802776763780    9.48398241992508
H         4.98804341793378    9.87152332082294    9.74377025409655
H         5.88488287337750    8.49907548714029    9.09910796042734
H         4.70400730771367    8.26005055326791   10.39168395746420
C        -0.98872852731577    3.22842139039660   11.83157051616066
H        -0.88038051499145    2.32711673195065   11.22124868234331
H        -0.97429494619901    2.94849533722422   12.89106302128430
C        -2.30391018556213    3.91067250620209   11.48442982011503
H        -2.25379331841946    4.26025744881472   10.45321517576185
H        -2.47532659909723    4.75370151323269   12.14896996269997
H        -3.12850703345408    3.20961073610586   11.58440850240240
C         2.69892532821496    6.66214428661551   12.14573103709185
H         3.30910371579332    6.94793897634191   11.28430774777570
H         3.31893856228221    6.09206683292486   12.84687679542015
C         2.16950111324994    7.90781108547618   12.83808313874964
H         1.48552416851855    8.43869606336378   12.17947657177129
H         2.99619511017882    8.56658502823530   13.08935311499033
H         1.64918642833230    7.62748139289220   13.74910561240667
C        -0.76287294502721    3.92257526559765    7.51829998305855
H        -0.42997618215236    4.64690864798589    6.74748243386908
H        -1.86460466655119    4.01384239050367    7.59885044895371
C        -0.42786547808843    2.51215244992068    7.02203777674365
H        -0.92007862169379    2.32104911714218    6.07136043435268
H        -0.76292012433546    1.77755317984957    7.75101917761829
H         0.64827284164118    2.41703674091023    6.89446075764796
C         1.59601216208020    4.20002498313129   14.18349360719204
C         0.74666095242356    6.12047907712677   16.43338630641931
H         1.69243314231152    6.65093671932574   16.47508366250717
H         0.28045306254901    6.21154388332042   17.40904334818368
H         0.11328125174089    6.63295611319041   15.71701613946091
C        -0.78857027540241    3.51637138580138   16.10414449544116
H        -1.45492285029177    3.93068911115096   15.35293121111954
H        -1.22199479156299    3.72172909914272   17.07786679596177
H        -0.77134191495259    2.43917074008465   15.97529572249589
C         2.08284375663831    3.45901703418769   17.25341045810312
H         1.91882836088140    2.38769238969197   17.29600254849554
H         1.88569571178778    3.86365627458882   18.24180678977304
H         3.13305400467466    3.61863616649883   17.03431767278873
C         2.74279607208955    1.65555939024092   14.63896864914719
C         3.75545658313123    1.05668834918189   15.37845700751328
H         4.73839862463963    1.50165513873355   15.41538368787192
C         3.51151954082372   -0.09715923443788   16.10248951767521
H         4.30767113171041   -0.53927551955559   16.68566628534816
C         2.25808138163971   -0.68375645190709   16.09111008897181
H         2.07152544033517   -1.58318626429400   16.66031409008042
C         1.24329584257613   -0.10307009454679   15.34760301951611
H         0.25920991351466   -0.55156986909606   15.33216502801501
C         1.48819181981007    1.05003874389191   14.62970438146703
H         0.69019134037774    1.51247115126574   14.06467436186620
C         4.45399741601282    3.86070358512974   14.33067712950007
C         4.44986594131070    5.05133008149525   15.04524052217815
H         3.50451454551605    5.53683444580020   15.24202057706378
C         5.63326825183758    5.60053730048402   15.50583194689585
H         5.61437325244566    6.52249486346094   16.07061505368202
C         6.84056843707889    4.97302586809883   15.24789883603764
H         7.76429906689134    5.40097800198836   15.61048563133072
C         6.85836207857280    3.79743138687367   14.51465546768388
H         7.79909501870191    3.30803650862455   14.30178517267874
C         5.67575105904761    3.25322315261336   14.05023980325158
H         5.68845130399679    2.35040423147549   13.45588627336165

