124
CSD_code = COJRIF | q = 0 | S = 0 | Stoichiometry = C50H67N3OPScSi | MND = 5
Sc       10.61339452286735    4.75803079967729   24.70125359510181
P        11.35924994750072    2.36939812160527   25.68525569271591
Si       13.63869233126409    1.92121455907380   23.37750297295608
O         9.60029200258608    5.57184250963866   23.35369692776694
N         9.40157191411743    5.34850020535264   26.34205443603827
N        11.88972338723551    6.38789506223688   25.15048625800524
N        11.04289458944456    3.21986814551559   23.32224197216524
C        12.52056386485421    1.32996310849530   26.63219914515941
C        13.23169496485139    6.38721077803599   24.69583988377126
C         9.98125881905771    1.12744318717998   25.71349483757390
C         9.11767954131235    6.63800844493926   26.38595603648473
C        12.68332375021569   -0.01205698225937   26.30241856947387
H        12.11543232210725   -0.42879018585003   25.48375093067480
C         9.98777240917019    7.63623245011491   25.93806494257423
H         9.62762368864292    8.64901945737099   26.05767486701856
C        14.24526649230450    6.00907343026759   25.59911615277575
C        13.23260619063142    1.86035154869058   27.69879531224721
H        13.09179538406205    2.89748650834426   27.96072260623752
C         7.01109173989228    4.27919685082783   25.04552984751230
H         7.58644912677628    5.16200437169395   24.73994708393275
C        11.28534291923520    7.53244104233011   25.42439773500817
C         7.41233593716920    3.90202344846183   26.45390415321406
C        11.89284365220268    2.30561321971864   23.95643511796629
C        14.10950132805585    1.06883472551022   28.41862438786926
H        14.66131685995987    1.48867421759571   29.24766779193510
C         7.81105492647392    7.11981008351534   26.98102080088387
H         7.07806674117557    7.22924177427771   26.18171936438780
H         7.93208451298455    8.08890037699024   27.45884069829375
H         7.41883225729323    6.40744397104415   27.70341621958163
C        10.62264120531958    3.11896272153408   22.08075616974258
C         9.24180660688075    5.19091593953559   22.16171876124261
C        14.88766464316912    6.68875738869664   22.97690848976554
H        15.15022489593211    6.95306781306642   21.96360358726066
C         8.14410811517004    3.17829213250593   29.04223749111540
H         8.40601259310563    2.89892848402827   30.05098380237659
C        10.22794854319597    4.61029868620959   28.93399974467630
H        10.90335431728063    4.84537489089085   28.09833496723502
C        12.50784930923878    7.17207418168332   22.37345960425662
H        11.53293388096778    7.21498244638800   22.87360375593837
C         6.64936707133561    3.00171992199543   27.18301234881216
H         5.76118728037042    2.57471673077686   26.74339489072525
C         9.41005911105208    0.82056292209254   26.94416091648447
H         9.79179302325167    1.29715651719127   27.83691175185462
C        14.94897329649878    2.13713636826564   24.75335313664178
H        14.73450990521818    3.01447845980299   25.35508374851714
H        15.93457125906354    2.27066938582265   24.31784196200719
H        14.99567748105878    1.27992707408407   25.41468450508919
C         7.37898522821771    3.13542799758583   24.09648308376645
H         8.46457922572064    2.98826508037583   24.10264383512815
H         7.06794335171631    3.36746108803726   23.07975805386731
H         6.90303154829180    2.20744152564518   24.40890647159808
C         9.49406079961438    0.50915458347748   24.56976966349975
H         9.94019132835813    0.73710721734182   23.61238881664231
C        10.93299734295936    3.62276831363816   29.86407715309345
H        11.92540476532896    3.99499006654952   30.11163973958674
H        11.04091514454119    2.64926680418649   29.39094841826284
H        10.38634579164898    3.49988256365387   30.79632149742807
C        10.98581698473017    1.94810816574036   21.20452017517264
H        11.81033993262232    2.18635463051619   20.53498026392670
H        10.13010676009164    1.66464028057771   20.59421532934437
H        11.29022956634913    1.10523440233586   21.82263518198675
C        13.83527607527900    0.12691987882996   22.71880821396178
H        13.35863072844125   -0.59865589994006   23.37034447745367
H        14.88865425213844   -0.13051594879082   22.66392613036773
H        13.42007677599923    0.00029722317086   21.72368626490937
C         9.93711336818351    5.91154388092419   29.68859499777279
H         9.17510945222238    5.74650277805303   30.44836975457300
H         9.58941757169747    6.68158611571693   29.00659898828830
H        10.84027263317790    6.27098939388606   30.17771820931069
C        12.82128419102184    8.55186816193103   21.78545093848984
H        13.69557387219488    8.50690495125718   21.14023465107891
H        13.01703399505684    9.28108046157192   22.56749989430391
H        11.98085395814594    8.90076088296390   21.18879752668792
C        12.40369858078868    6.14183999502096   21.24666669206691
H        11.62083421570224    6.42817878232960   20.54730225235803
H        12.15615563099359    5.16614782997160   21.65983174053759
H        13.34240983781227    6.06341669601648   20.70211001836953
C        14.25429337000244    3.11642252680221   22.01674727017879
H        13.58851989024959    3.18206879848696   21.16496627828361
H        15.22134805647460    2.78851633858073   21.64645819024533
H        14.37898140602269    4.11783749988011   22.41797051824067
C         8.24829684245920    6.09597040756221   21.46237570272787
H         7.34960904206719    6.19114686090675   22.07115148820803
H         7.98092052697088    5.71203886664647   20.48279636019314
H         8.67803325625783    7.09156141147411   21.35464126919931
C         8.37303215033293   -0.08734604597992   27.02985749062204
H         7.94033110614482   -0.32229294707215   27.99142824462471
C         8.95776799262280    4.04851869030658   28.33297573010375
C         8.57613989071518    4.42958961328678   27.03359705615872
C        13.87852235473379    5.66422275885470   27.02836550818053
H        12.97607435384005    5.03080970246161   26.97876862215475
C        13.55864716567236    6.74481025562283   23.37571358473580
C        15.55939697158765    5.97996090313154   25.15872421178354
H        16.35121322625796    5.69923377311730   25.83360167135168
C        14.27916578923166   -0.26214792990240   28.07671689137032
H        14.96539222645182   -0.88154511203518   28.63579982998906
C        13.56309097666117   -0.80058269499616   27.01865058227546
H        13.69240468232402   -1.84056614408122   26.75478495473309
C        15.88286529222417    6.31302233834842   23.85629813855912
H        16.91186743907418    6.28214987598937   23.53028387441161
C         5.52309964807986    4.61832284380482   24.93470410793304
H         4.90733614861243    3.73073441317828   25.05580635802567
H         5.31039352414216    5.04108507426535   23.95480250899784
H         5.23470716758061    5.34254322482332   25.69381017977949
C        11.99878737965468    8.85850721138649   25.25596547332211
H        13.06377028761933    8.72062579310416   25.08772015018760
H        11.85781205725114    9.47526376289503   26.14170070905848
H        11.57320227406429    9.39452614183585   24.40929767958181
C         9.70713034731360    4.06572641225788   21.53211115265309
H         9.35977180143706    3.86715250788838   20.52918765590672
C         6.99644207496363    2.65698701132197   28.47475340749918
H         6.37359571814116    1.97899124734190   29.03936697565656
C        14.97465869051392    4.90731636623840   27.77822442208442
H        15.30421672092482    4.02839386278468   27.22976474726316
H        14.59824369955405    4.58286816807156   28.74676750334048
H        15.83159730374740    5.55257356740350   27.96070241577626
C        13.53048482172968    6.92805696908916   27.82528272218013
H        14.34280540054288    7.64970145044967   27.75783081148743
H        13.38189696227471    6.67552303743511   28.87346684553292
H        12.61935142417732    7.38727599218149   27.45666549807459
C         8.45309334101514   -0.39808105111252   24.65460637012051
H         8.08220944568158   -0.87594610240286   23.75855314219278
C         7.88865121842010   -0.69623955879501   25.88320039159856
H         7.07504696357310   -1.40437329039893   25.94812889651334

