59
CSD_code = COJSEZ | q = 0 | S = 0 | Stoichiometry = C29H26CoO2P | MND = 8
Co        2.44297253652857   14.68468942365265    3.05216089001897
P         3.13085354966397   13.14715510442058    4.36923027057238
O         1.40109720826249   18.52066458068899    2.76851148086615
O         0.19806477497478   17.24083615274169    1.36345751874039
C         0.85467568451850   13.63091087936827    2.84616669658483
C        -0.06291612062604   13.84598534198939    3.79419368506789
C         0.35555839951773   14.75127664632572    4.83327194887937
C         1.60347993842634   15.21554393271450    4.69633858764365
C         1.28824792194605   17.50767215795170    2.11648735855078
C        -0.83996420960173   18.20065410975720    1.43264856463267
C         2.29739014182775   16.45687091595034    2.00744499426223
C         3.55748593350495   16.46265255232618    2.67857071374180
C         4.31216126931788   15.38617477888023    2.19364320206986
C         3.54358811626010   14.70248111140796    1.21526055894258
C         2.30634207182415   15.35710970405423    1.09268538116588
C         1.97753040391639   12.02233463840068    5.22189094978506
C         1.43321192564540   12.43407776865647    6.43647695503389
C         0.51497180734225   11.63887803946328    7.09508704160144
C         0.13153696973095   10.42313359420066    6.55246765636948
C         0.67973186515253   10.00261384475132    5.35305026270107
C         1.59691160678343   10.79759669707878    4.68802646759665
C         4.22111940052697   13.60998547523085    5.75831714182601
C         4.77201421012774   14.88286030483485    5.82160606854500
C         5.62137425837924   15.22785979613445    6.85881709409498
C         5.92881094269111   14.30094657425512    7.84004434812014
C         5.38861975078061   13.02547805222110    7.77947653564126
C         4.54049942673855   12.67797908222438    6.74476369515972
C         4.19936327250908   11.98386000273766    3.43778820442186
C         3.68739871717185   11.47266664296430    2.24643315032458
C         4.43925494983282   10.61317687484866    1.46855065703822
C         5.72350270596119   10.26952579064285    1.86078192854954
C         6.24856542123264   10.79482678040855    3.02855015157121
C         5.49427292671798   11.64970890680673    3.81500924024569
H         0.64581972130222   12.96854540458304    2.00872985072939
H        -1.04182902251078   13.38202767117420    3.81201771013335
H        -0.30748939427173   15.02164290169950    5.64636542851221
H         2.03222870216500   15.91822163549909    5.40558718357753
H         3.89013651876084   17.25057478507208    3.33514851491570
H         5.34200939586611   15.17051245986312    2.43749554015514
H         3.90727120149611   13.90754885194352    0.58250763161343
H         1.54695416202285   15.16758776218461    0.35168307617375
H         1.73586297969138   13.38001416083713    6.86117182297911
H         0.09550988655211   11.96804049047259    8.03448878562677
H        -0.58861007774157    9.80336950060950    7.06586642081579
H         0.38985592725454    9.05186020914569    4.92993281135980
H         2.01940713610463   10.45835212786292    3.75429015441904
H         4.52690801346950   15.60220517555160    5.05481727457505
H         6.04267953474446   16.22153620859222    6.90261650855728
H         6.58837277164509   14.56951491943009    8.65194511157966
H         5.63051696577682   12.29901929009595    8.54160647413594
H         4.12227844488222   11.68166687180721    6.69623192621974
H         2.69686677874494   11.77077108196690    1.93153441705531
H         4.02966521567959   10.21687182908730    0.55049246553689
H         6.31619357618746    9.60308786649139    1.25176317646352
H         7.25419293238155   10.54082095999161    3.33087456741180
H         5.92117612331317   12.05671788883161    4.71978763093090
H        -1.63484775540938   17.83798230753267    0.78561072377798
H        -1.19724768525120   18.29778851473066    2.46043125356676
H        -0.48300983044095   19.17613286685356    1.09299413881157

