74
CSD_code = COJWOP | q = 0 | S = 0 | Stoichiometry = C34H29BrCoN5O4 | MND = 6
C         5.78460310087893    7.92715206710768    6.33035964135694
H         5.53839796195499    7.03141432740633    6.87921267423024
C         5.63103038515451    9.17038520866270    6.91501600535605
H         5.26969844496207    9.24222488447304    7.92981458926330
C         5.93882328228754   10.31821649083641    6.20405206789185
H         5.81943420011493   11.28798381301365    6.66399538511728
C         6.40234899846079   10.22240568896670    4.90196590329954
H         6.64749474904069   11.11562663236382    4.34658049786762
C         6.54963492254742    8.98427877961957    4.30638232869062
H         6.91527854689223    8.90908285477328    3.29258136206195
C         6.23809695833060    7.82892930545564    5.01832935489634
C         6.38196920229568    6.50973417614391    4.38652421905738
C         5.82931843243593    6.20905884494197    3.08728174913810
C         5.02324795387920    7.17084573232079    2.32228230789829
C         5.26754994620965    7.38062934697162    0.96842423527554
H         6.06029861614986    6.83791279092131    0.47598073394139
C         4.49875378937476    8.28245344422980    0.25610895736079
H         4.69662308771686    8.44206029874394   -0.79374327747207
C         3.47860090215271    8.97627890011484    0.88385396984297
H         2.87920017505180    9.67982898874079    0.32511127075583
C         3.22097232597407    8.75820439164517    2.22770295628392
H         2.41673926385416    9.28683847695281    2.71750989711069
C         3.98568404753438    7.86028291483268    2.94661089624246
H         3.76954075378658    7.67476854811648    3.98772977820629
C         6.21456537655471   -0.66867009355557    2.60535716441272
H         5.30480146532009   -0.09086406542667    2.65679931441356
C         6.19617637798354   -1.96039324660125    2.11323028230072
H         5.26574112424815   -2.38848343490569    1.77182832692644
C         7.36408271839441   -2.70239457101737    2.05811013561563
H         7.34683719428198   -3.71088964128846    1.67225235203067
C         8.55650075848419   -2.14975877134995    2.49652652083516
H         9.46977577376128   -2.72433933966109    2.45028649196128
C         8.58243278160530   -0.86274457652660    2.99874835800713
H         9.51289240786060   -0.42994067327773    3.33641970640125
C         7.40863077147819   -0.11613930355037    3.05872831340019
C         7.42706846538197    1.24793440306929    3.60552479943570
C         8.03906899989748    1.56465320084609    4.87389257438929
C         8.63777934613024    0.54450371092162    5.74629490916495
C         7.93638511778524   -0.62512916177367    6.03167850583666
H         6.94880735881062   -0.77099497820351    5.62119643246478
C         8.49393987712773   -1.58164105569877    6.85760035264164
H         7.94341737142356   -2.48444560258580    7.07673442552170
C         9.75002375428965   -1.38311111887419    7.40780021202095
H        10.18318929816213   -2.13369343454410    8.05238352508650
C        10.44416071713291   -0.21617354559546    7.13831053732157
H        11.41966749455741   -0.05323111915030    7.57266953179233
C         9.89195895006010    0.74698105560208    6.31416188493355
H        10.43340206329450    1.65799532810479    6.10790330921548
C         8.87778939126686    4.30950366561007    1.71911448369748
H         8.01484443288465    4.00317688880741    1.14377103356628
C        10.05451295198806    4.61870744553869    1.06567338929143
H        10.09754923446131    4.53815961346480   -0.00925884609999
C        11.16720577617915    5.02634961494374    1.79321561690921
C        11.01420188196037    5.09944473995912    3.17534386092144
H        11.83538840817604    5.40802425366818    3.80332789314940
C         9.80467601233222    4.77477181841977    3.75384726086998
H         9.69871273341382    4.82313572161234    4.82895946803440
C        12.45698242101723    5.38243894847556    1.13638874725096
H        12.46534053758038    5.07269719986224    0.09495746320218
H        13.29154818593022    4.91610385620121    1.65610687062067
H        12.60465224848072    6.46158674148782    1.17773632897060
N         7.04022044346043    5.53033551528242    4.91905634884608
N         7.98448266843129    2.83419550802145    5.17270147408419
N         6.93378335223274    2.27317796899552    2.98774557053277
N         6.09633226971153    4.99820011012174    2.67880874476559
N         8.74355807626303    4.38232392827222    3.04446150993806
Co        7.03666721135796    3.91512231004232    3.92785072041840
Br        4.99082074488900    3.35004421482720    4.98800167957882
O         7.66213091487157    5.71703372181792    6.11063344634336
H         8.03737034103387    4.78781974370244    6.35871646569465
O         8.52617914963676    3.33339034801311    6.22157189163039
O         6.39165136064119    2.10839812753655    1.75470581687716
H         6.00462841449459    3.03436302383684    1.51258304080339
O         5.75582522624007    4.55416809916315    1.52567425029514

