135
CSD_code = COJWEE | q = 0 | S = 0 | Stoichiometry = C45H82BBrN2P2PtSi | MND = 4
Pt        4.97861927269184    5.27173648163321   10.83368969614751
P         5.57978950906147    7.47712371469298   10.46742387005344
Br        3.15096494391902    5.51875158024686    8.97096475248819
N         7.70742149320581    4.70154994534181   12.06708463358575
H         7.88718476417575    4.51260042153921   11.09346320548971
B         6.35961216278781    5.08958371695726   12.34850617836680
Si        9.14688757706188    4.50341227186624   13.02765159528306
C         9.71678136974288    6.15274708043104   13.80666881639889
H         8.92830991575264    6.63116129560644   14.38037785966971
H        10.03621451589045    6.85493075564960   13.04184081546410
H        10.55822057728324    6.00018958307700   14.47591683909779
P         4.52128802181464    3.00468026051619   10.88571997951291
N         6.07986218062892    5.32789323306678   13.72209098131002
H         6.86350379848611    5.20729435889271   14.35047007119674
C         8.93379940663078    3.21400250978803   14.42276609738576
H         8.25943360484548    3.54965010672455   15.20580501041543
H         9.88844829933457    2.99679450468282   14.89318293365921
H         8.54363647818185    2.27645463183413   14.03714212329177
C        10.46938312761000    3.88908178314050   11.80347392428892
H        10.61946107461779    4.59404745245575   10.99138827796992
H        10.19636558680406    2.93458432454062   11.36378968383649
H        11.42438014832792    3.75724390578540   12.30033380255239
C         4.92720748664634    5.68135649770532   14.39388869788686
C         3.71521970778612    5.88686339218951   13.72953069379259
H         3.69109734511467    5.76444547230918   12.64679793563920
C         2.57717020352262    6.23781259948470   14.42500605522886
H         1.65243232790660    6.39184588297482   13.88839082423519
C         2.61586827488315    6.39347727600393   15.80168857070279
H         1.72441000772353    6.66741417447186   16.34501460764547
C         3.81044291198472    6.19363014814603   16.47299792404749
H         3.85293969971769    6.31177068822160   17.54641137050645
C         4.95304311227406    5.84210931589315   15.78137489694518
H         5.88195544375051    5.68800779795507   16.31506070796710
C         6.69033292260952    7.59888917347953    8.97148907706760
H         7.04084926034027    8.63415645295806    8.88758435428772
C         7.88046851234276    6.66304414159838    9.18598602645898
H         8.38703064619406    6.88537744221180   10.12728631972526
H         7.49049217730608    5.64251431055664    9.24957619227337
C         8.86953493118597    6.74821080290751    8.02798912899598
H         9.70426166330945    6.06483563996367    8.20247876901849
H         9.27593359315494    7.76141264059270    7.96942707264879
C         8.17669199411480    6.40342589107246    6.71392257817820
H         8.87866113554581    6.49782171388315    5.88274023994670
H         7.83665641883397    5.36574357096815    6.74663877111874
C         6.97686221687752    7.31894618369832    6.49565873900550
H         6.46600975172885    7.04776247358215    5.56983120569273
H         7.32265367636457    8.35149781354563    6.39591838488612
C         5.99815550075662    7.21982648601361    7.66287501013566
H         5.14685556008556    7.87295351727867    7.46832314107226
H         5.62311664854375    6.19735457864966    7.73003165520104
C         6.63083955221434    8.30485288802626   11.79021905436659
H         7.26841092688436    7.48242092797692   12.14209212874696
C         5.75777998314823    8.73628486045451   12.96813455916194
H         5.16939511654847    9.61202557889365   12.68994892376398
H         5.07080729906567    7.93318470595581   13.23784749543116
C         6.62415362379885    9.10465925875022   14.16743438728002
H         5.98986863636421    9.39400571655140   15.00806071999317
H         7.20711832030706    8.23397505056854   14.47475068989557
C         7.56327687144176   10.24773060101392   13.79637736861706
H         6.97381887715409   11.13594569755619   13.55581627035280
H         8.20864365968038   10.49632207569114   14.64161642149027
C         8.41525019205977    9.86230999098596   12.59131661236971
H         9.05849959040080    9.02268023877910   12.86318657062906
H         9.05983690044134   10.69877358375864   12.31045959462564
C         7.54770379766349    9.46339915022539   11.39537763231813
H         6.96150686382814   10.32604078073380   11.07758972847354
H         8.20892437509868    9.18169852046741   10.57514482913524
C         4.16926510643446    8.61556393145932   10.02745526291455
H         3.82104759425268    8.20131923066356    9.07263253483672
C         4.50164137325852   10.08650533146123    9.79654808526481
H         5.34983593380035   10.19162921844867    9.11656228361925
H         4.75405648164992   10.57334203761882   10.74028420338760
C         3.28098957649081   10.78625541151929    9.19838545380112
H         3.50641919525570   11.84211214935623    9.02900936205253
H         3.04308315301863   10.33516650098922    8.23246178088272
C         2.07663940498449   10.65264363558610   10.12605321954987
H         1.20799436450402   11.13749853442754    9.67576932018538
H         2.28907569454106   11.16040825387433   11.07082858145223
C         1.76999432225256    9.18313804118563   10.39894656803861
H         0.92619679088567    9.10151464984263   11.08714011692539
H         1.49198098915512    8.68632962229161    9.46739481842943
C         2.98950432523252    8.48307962137502   10.99219591668149
H         2.75833143406163    7.42661223350146   11.14255722289536
H         3.22012609035849    8.91827371529583   11.96475402760260
C         5.33733926992663    2.11889424116878    9.45781522505104
H         5.17957088940176    1.04269751927262    9.59568615833004
C         6.83428912849627    2.43018582443660    9.49025657494626
H         7.26143162368959    2.18375776817086   10.46453256044880
H         6.95371070357602    3.50655889417185    9.33157531479594
C         7.58060476742187    1.67837659665583    8.39235107897536
H         8.64427646099669    1.92616751506833    8.43118688858208
H         7.48354256275415    0.60202949020108    8.55811964105831
C         7.00959599245662    2.03282695128889    7.02333500911542
H         7.52321483781388    1.46549583362965    6.24432199618473
H         7.17470383726673    3.09456885812932    6.82585481337552
C         5.51297835286345    1.74251617638103    6.98592490621711
H         5.34839930680011    0.66933444581764    7.11644996065508
H         5.10342648402279    2.02704016641940    6.01490822867147
C         4.78487838304397    2.50844565786654    8.08742805255763
H         3.71738585919210    2.29552499312012    8.02219507688720
H         4.91944815121188    3.57894007072937    7.92692874483222
C         2.72185374491081    2.56519646958852   10.66794500927867
H         2.51605936108100    2.89801811367178    9.64262156933925
C         2.34926127637451    1.08863357284520   10.75820240927594
H         2.44451429691935    0.73438739317088   11.78617996031025
H         3.00022814959924    0.48425885713367   10.12275975458397
C         0.89729657048206    0.90968378076992   10.31473605670605
H         0.79536386718747    1.22314842541717    9.27336116777319
H         0.61994516742463   -0.14562648890510   10.37606338754013
C        -0.03564821790436    1.74584163439736   11.18598257270416
H        -1.06648137830775    1.62340498636270   10.84738594243747
H         0.01994600358642    1.39238806106947   12.21920493981478
C         0.35907938751239    3.21857808849672   11.13258257074610
H        -0.29694020298023    3.80301127207503   11.78094540144010
H         0.24355613151264    3.59288492738599   10.11349327354254
C         1.81016591265379    3.40008549829548   11.56882128327382
H         1.91404032449063    3.11175990304543   12.61514904086006
H         2.08007895342924    4.45450131428064   11.48149027260519
C         5.20239467512043    2.05081114324739   12.35696329577250
H         6.17107998904754    2.53908248675941   12.53049412994391
C         5.46048717280015    0.54946721532297   12.22295752467046
H         4.52271120978894    0.00685373113771   12.10211512961983
H         6.09191299581223    0.33167299438232   11.36085917481898
C         6.17270524723881    0.03864117296797   13.47715234130530
H         6.34533381370096   -1.03646723616400   13.38604000388218
H         7.14816300391930    0.52484849217971   13.55786971305442
C         5.36202886561271    0.32813407120091   14.73641542831782
H         5.90904502482375   -0.01707481599464   15.61637272096041
H         4.41906736581133   -0.22263488268779   14.69421184627153
C         5.07047715587288    1.82128296917496   14.84881346449256
H         6.00664348402785    2.37131879251221   14.95933935980965
H         4.45845772483828    2.01995362535594   15.73127896316908
C         4.34586567728687    2.30431927318364   13.59701635071843
H         4.12165626127786    3.36829232855757   13.68401689619059
H         3.40311699838260    1.76106008512418   13.51376697112090

