57
CSD_code = COKGIV | q = 0 | S = 0 | Stoichiometry = C29H15F7IrN3O2 | MND = 6
Ir        2.27518799415656    5.05421165000815   13.30696528215353
C         4.15700444304664    5.45556677898685   12.72591138713106
C         5.30801260434820    4.72847825645087   13.00259352562397
H         5.29484393108777    3.88341779530535   13.67342616288552
C         6.51081702111326    5.08183919083441   12.41952780758985
F         7.61278865470423    4.36358508695419   12.70434375747901
C         6.62429825264620    6.15500951281870   11.55489765325239
H         7.56748555116543    6.42210284953859   11.10821632392150
C         5.48157631948395    6.87825320429783   11.28156343796784
F         5.61720391281256    7.92723949470423   10.44287727918237
C         4.24400182625500    6.55852190483528   11.84260064982265
C         2.99171442499871    7.27085291489053   11.61905385829279
C         2.81178080137518    8.34689237443162   10.74874927283107
H         3.63008787980217    8.70406153856689   10.14900191546990
C         1.57424775962081    8.95191692135991   10.64736080271487
H         1.42473746392548    9.77984130823621    9.97187629137790
C         0.53194728125699    8.47944543902908   11.43125026855003
H        -0.44764916714118    8.92768281257361   11.39597767384709
C         0.77288683594077    7.40314959844371   12.26245059487355
H        -0.02186695720685    7.01509276611258   12.88527860073570
N         1.95582429979737    6.80170514970042   12.35456196251564
C         2.68328306476613    5.73367354685912   15.15488297755661
C         2.65437674217252    7.04865321445673   15.60508992860724
H         2.50629009877167    7.86907108115002   14.91991701253991
C         2.82428153161560    7.33145399516304   16.94790835257078
F         2.78969918756702    8.61223650724714   17.35804742043058
C         3.02412191119478    6.33941935694838   17.89145518687474
H         3.15036937558953    6.57287719394375   18.93528568193879
C         3.05928652767588    5.03344982641920   17.44763345935743
F         3.24883818158565    4.07734773874420   18.38154439491320
C         2.89546040062097    4.69925582651158   16.10273746155652
C         2.92937558243871    3.35209204279958   15.54267342936320
C         3.19177768479134    2.17338709102842   16.23999313489363
H         3.37411675432998    2.19509915982545   17.30007671235892
C         3.22539436763086    0.96912340653688   15.56108580672199
H         3.43012243010041    0.05260420964625   16.09248255608681
C         3.00217724447458    0.95936034595908   14.19175779749610
H         3.03041015129750    0.04382051259512   13.62402574320135
C         2.74277330150774    2.16011239344958   13.55823990543725
H         2.56992857798773    2.20375123431704   12.49138233672798
N         2.69722353416438    3.31922460936167   14.20833061941494
O         1.63365165980646    4.15700980754290   11.42880069873294
O        -0.16249310018306    3.40603311128767   10.35062745101891
C         0.41906912343805    3.85205306945206   11.32252412018163
C        -0.43085465762626    4.05579840046692   12.61045246178184
C        -1.76608634717845    3.66821173326815   12.62637013739952
H        -2.18106990462312    3.24283124169747   11.72567572665772
C        -2.50270750231193    3.84046775483746   13.78106089800357
H        -3.54226535499658    3.55493110899944   13.83984959627846
C        -1.86190863101566    4.40230096995902   14.88498418669078
C        -0.52809377245654    4.76589970077676   14.78890834214965
H        -0.00724122904480    5.21076139924300   15.62624111268113
N         0.16839798985925    4.59518883367030   13.67246404402531
C        -2.62672406012762    4.59671439674531   16.16385373484502
F        -1.91447804703652    5.21997558979186   17.11044116444952
F        -3.02488981522385    3.42516876511101   16.68917365787122
F        -3.74054413475420    5.32337427610503   15.97593824096690

