91
CSD_code = COKLEU | q = 1 | S = 0 | Stoichiometry = C48H38CuN2P2(1+) | MND = 4
Cu        9.53988264087937    2.04916595279165   35.95266484418953
P        11.29755790113777    3.54256385427596   35.69191867164576
P         9.22068020338056    1.68105182930510   33.71822060747972
C        11.13698713108638    4.55028525129925   34.17643100656586
C        10.75368338844693    5.90550262205154   34.23483369914906
H        10.66163863976192    6.38916878119435   35.19588478441356
C        10.51627670703373    6.61313990894253   33.09336141367882
H        10.22773279281521    7.65268238587717   33.14734351047768
C        10.64483322895682    6.00950590746818   31.82610187335738
C        10.38054676000188    6.71661401852583   30.63568816063529
H        10.06306832217379    7.74651758114704   30.70698540277812
C        10.52560732904332    6.11362420464605   29.41824175034143
H        10.32379544114740    6.66084211439164   28.51000550609074
C        10.94274819174559    4.77628562908598   29.34004240809312
H        11.05775432703914    4.31312069770869   28.37160633315947
C        11.20086845457871    4.06203882366959   30.47593058140676
H        11.52026036964832    3.03258507398697   30.40992896726031
C        11.06001870808503    4.65528732069864   31.74945737976336
C        11.28866676228019    3.92846391259765   32.94712866009919
C        11.76263181274945    2.52924539292206   32.86778647201483
C        10.92544011014928    1.46062499243393   33.13189284514331
C        11.44631285914897    0.14659118776421   33.15725636533307
H        10.78692302671885   -0.66692552612702   33.42819861823389
C        12.75047211429832   -0.09548494931600   32.85084489726169
H        13.14232925236773   -1.10210667343897   32.87107985200196
C        13.61376784802052    0.96173348724750   32.49209515023392
C        14.95758019890587    0.72849163847471   32.13901424344608
H        15.32259219047553   -0.28815628235576   32.14110254608803
C        15.77989807265631    1.76401920663358   31.79390564227505
H        16.80669115367940    1.57818613720658   31.51805613272491
C        15.29106195073253    3.07793909756442   31.79579254393269
H        15.94792168759885    3.88863230515366   31.51896716116831
C        13.99570620217790    3.33779688835741   32.14708636958823
H        13.63133953988380    4.35377296190835   32.14813410628748
C        13.11640768512763    2.29048606889374   32.49699740490514
C        11.33285030898866    4.75563912981591   37.04727236664653
C        10.12038437934050    5.37319059097445   37.35982199661708
H         9.24563351489959    5.15463996936811   36.75877572308730
C        10.03706324688991    6.25461948819164   38.42044871376764
H         9.10052683813624    6.74555564942546   38.64353516125162
C        11.15791109845825    6.50899499817893   39.19691948542157
H        11.09509466757146    7.19673218330192   40.02649330636469
C        12.35523355818242    5.87487597321335   38.91038707397103
H        13.22510422904306    6.06515929218517   39.52071530507721
C        12.44661337807344    4.99713820894375   37.84331211005893
H        13.38336551516182    4.50319523637476   37.63029218644303
C        13.00970974995350    2.94372687957559   35.59305147493403
C        14.05678384459187    3.78344316946004   35.22323768786706
H        13.85898691398251    4.82369005308245   35.00198328591591
C        15.34030878833842    3.27859178830333   35.14056364988090
H        16.15537744628029    3.92731451000529   34.85714948060157
C        15.58223146577168    1.94136855030479   35.41430432678782
H        16.58602022799378    1.55182408607240   35.33999587997543
C        14.54130012365009    1.10558283462373   35.78322043164327
H        14.73339459219961    0.06484568485513   35.99732932715091
C        13.25498638190924    1.60479167158277   35.87584687273419
H        12.42888812118375    0.96473066729251   36.15910064482050
C         8.50441016324513    3.02758674443918   32.72218834880862
C         8.00182763564348    4.12744285617307   33.40974676977545
H         8.06746961134833    4.14356945345354   34.49214904399753
C         7.43746021424137    5.18099776450891   32.71661738783480
H         7.05580499538706    6.03807104063491   33.25099711285737
C         7.35848653635889    5.13169622129506   31.33435327224248
H         6.91720657922363    5.95241816520748   30.78994607054138
C         7.83605690527099    4.02661087913831   30.64866634178367
H         7.76397522830048    3.98739101958385   29.57229598333675
C         8.40894037823125    2.97325382673848   31.33621030210106
H         8.78093266728421    2.11352900307660   30.79901472569190
C         8.32833739659746    0.23840088201569   33.05479701848743
C         8.64035919775748   -0.41007998057422   31.86351781873245
H         9.48858741848050   -0.09043789822747   31.27440324002259
C         7.87097555774660   -1.47977189584307   31.44258815442769
H         8.11325857920333   -1.98190214787890   30.51793086215032
C         6.79130431191549   -1.90780821635694   32.19942376083432
H         6.19550587203201   -2.74264784867198   31.86335584150062
C         6.47678321790924   -1.26528353605518   33.38640725848725
H         5.63497395636012   -1.59748216838368   33.97592064163229
C         7.24421417569818   -0.19645395183894   33.81310549354932
H         7.01612842719992    0.31551825714119   34.74070960407882
N        10.04128145869041    0.09368748713504   36.39796250489440
C         9.73435763664493   -0.99752427712826   36.21875278319111
C         9.36483597807197   -2.35639013840853   35.99530495030480
H         8.88331812301418   -2.75522904794167   36.88779398899880
H        10.25198711290247   -2.94902774354781   35.77231498337913
H         8.67061972293960   -2.40982318788459   35.15542960949797
N         8.37821259111815    2.46589396031545   37.40036430036319
C         8.23759492075638    2.88657923078212   38.46042788674095
C         8.02501598703758    3.40864257658262   39.76769939502899
H         8.79255983146178    4.15162276128027   39.98810248552452
H         8.08291821290676    2.60136471779388   40.49759275600812
H         7.04124800439464    3.87474277413592   39.82636690039161

