58
CSD_code = COKNAR | q = 1 | S = 0 | Stoichiometry = C26H30PPt(1+) | MND = 6
Pt       11.39104654189227    1.91172325138929    2.88386069911486
P         9.69086120724749    1.09393740756696    1.51958807279213
C        13.30172840869626    3.15941946569762    0.88562394453538
C        12.80794327941894    1.77665108174361    1.21213325968798
C        13.30640766389670    1.03287753617007    2.26475785399122
C        13.16328389178494   -0.46005010389651    2.34485496762371
C        10.04686712146383    2.61955994149353    4.35137878147012
C        11.27377512673213    2.32745406685758    5.01081545445429
C        12.40715067254366    2.96596834910283    4.47684396944938
C        11.38549139660170    1.22886205307713    6.02041221895857
C         8.46117673208380    0.26427576201980    2.56602321048687
C         7.08757094422169    0.42463878727930    2.45255807084385
C         6.24683375210331   -0.26779005319966    3.30902609658363
C         6.76920762337303   -1.11620048632460    4.27091211067033
C         8.14261646645251   -1.26889887163121    4.39461651274127
C         8.98579361946956   -0.57477879696863    3.54924589740990
C         8.87651965996510    2.45478373849463    0.65004604050255
C         9.31358790136158    3.74830499112475    0.91764922994485
C         8.72889941586435    4.82664700531682    0.27992424504629
C         7.70537515783842    4.61348272653753   -0.62992037919122
C         7.27938173979845    3.32458204609929   -0.91389491233106
C         7.86477118300816    2.24205219500533   -0.28301173712098
C         9.99677713736321   -0.11934713814851    0.19610019982187
C         9.86612279837690   -1.48697271951424    0.41833919877942
C        10.14420215030725   -2.38211139580085   -0.59972368020646
C        10.55967957993001   -1.92277722827167   -1.83875044990477
C        10.69417653551750   -0.56151894644825   -2.06381352437940
C        10.41820774689590    0.33887796727535   -1.05200336418832
H        14.04516626401669    3.08865093605419    0.09103750567693
H        13.77011576566201    3.63649785859697    1.74512511214792
H        12.49566522944584    3.79149363275276    0.51264563068717
H        12.36116484608551    1.24500304472048    0.37146714990922
H        14.10496205305041    1.45203690799308    2.87349533723928
H        14.08694828937130   -0.92444650794602    1.99779839202650
H        12.34631575286963   -0.81961555212630    1.71747177414030
H        13.00835929349971   -0.79001129947677    3.37278114813186
H         9.85359094536531    3.65527863328134    4.07012610411254
H         9.15589639411658    2.08884388075256    4.67306867313287
H        12.31230930011344    3.98942093097879    4.11205528488688
H        13.37855713389134    2.73552394829864    4.89870866626645
H        12.35310806328688    0.73156853791370    5.97337509886457
H        10.58844002409494    0.49616278733994    5.90752906881198
H        11.28990627647338    1.67151162304819    7.01289946025972
H         6.67543348548249    1.09415483433134    1.71242840890741
H         5.17837869934821   -0.14227310307892    3.22408815137756
H         6.10741202297791   -1.65392021364464    4.93183775236818
H         8.54869505037492   -1.92438854467193    5.15055726250916
H        10.06557501104465   -0.66643435813103    3.63909999950100
H        10.12814112787428    3.89326245025186    1.62602984405961
H         9.06899573660230    5.82997788800238    0.48677160926752
H         7.24476873263837    5.45295186126718   -1.12705289514528
H         6.49158117137784    3.16357212304506   -1.63377264047307
H         7.55315320648517    1.23459580291640   -0.52244731753587
H         9.53568244032252   -1.85119562154454    1.38048909205098
H        10.03350114180730   -3.44113050561570   -0.42402628768193
H        10.77469674007163   -2.62388600582745   -2.62989934245654
H        11.01268079647011   -0.20084914775719   -3.02981214017017
H        10.51034355156903    1.40209054622879   -1.23176789046069

