103
CSD_code = COKTEB | q = 0 | S = 0 | Stoichiometry = C40H48B10O2P2Ru | MND = 8
Ru        2.42491648027800    2.99883035985131    2.96178066861926
P         4.28355088988671    4.11452345218060    2.07579344529708
P         3.65323373643820    1.63856333916219    4.42777801506907
B         1.46472394839632    4.20577574334275    4.35179278360072
B         1.00103292689979    4.93836074437889    2.79701803571603
B         0.75900491078501    3.99644569245798    1.40689787159304
B         1.02804703247190    2.28870938428999    1.59540135166109
B         0.23854397557790    1.79394056163189    3.05369902432408
B         0.36160419387950    2.78078052165452    4.41235634882058
B        -0.23440664981030    4.43734354518719    4.06004171669554
B        -0.66536105883648    4.43471788433833    2.35491337462218
B        -0.59339371355708    2.78748989137283    1.70535426991022
B        -1.04861553066247    3.01779090094977    3.37464562734000
O         2.22200267074561    4.67110938692978    5.38907865952513
C         1.75383171989592    4.94543798297576    6.69222171219989
C         2.83061618203839    5.67708776978709    7.48252830056012
O         1.84651034926093    1.49898170651405    0.81650472288416
C         1.95877256195376    1.61233127812175   -0.58596626423820
C         2.90460157538341    0.54478786506878   -1.11895418288239
C         5.81957283916404    3.10134535917436    2.00239772643064
C         7.11642609152032    3.53104051567924    2.24402357911838
C         8.17312243441393    2.64318553896071    2.12599796211071
C         7.95066646425945    1.32455202906168    1.76967874352321
C         6.65688082456131    0.88123931843943    1.54400916743394
C         5.60404648124393    1.76594764426919    1.66529396688859
C         4.14541408232154    4.50134737373134    0.27747217969790
C         4.73094385797164    3.74989402580587   -0.73471059194245
C         4.55062177561293    4.10133127748506   -2.06246159119722
C         3.78478937970170    5.20468718889415   -2.39557104704436
C         3.19989665603487    5.96168997861884   -1.39227352255829
C         3.37568852120062    5.61150906139323   -0.06767961640433
C         4.92050546452985    5.76526577255728    2.56600109370491
C         5.88093338303977    6.41675366942051    1.79451179115073
C         6.34923381157641    7.66226172283338    2.16883419316957
C         5.85550512650100    8.27845656155704    3.30782922278660
C         4.88164820898212    7.64801604234598    4.06280177287414
C         4.41376965058203    6.39813579199496    3.69369321786642
C         5.35836170143554    2.18422552475553    4.85881017337367
C         6.50809786197971    1.40685873031987    4.84067072512690
C         7.72694885873029    1.96258882771316    5.19323783061479
C         7.81480935043849    3.29331915417538    5.56210094142371
C         6.67475893596795    4.08161354429895    5.56581170861585
C         5.45938249560639    3.52923990197829    5.21244001352167
C         3.03137334983600    1.33465798923858    6.13333577013839
C         1.97230236051378    0.43774362493745    6.26766900808613
C         1.43029422886136    0.16882931001050    7.50916294129495
C         1.93005756486602    0.80113250446881    8.63696191706333
C         2.97700262648768    1.69726718414491    8.51193684478094
C         3.52628466003481    1.96280189937701    7.26838561225913
C         3.89112300384159   -0.13621550880371    4.01188854192639
C         3.40324688349085   -0.61984253874939    2.80453014342275
C         3.55545682218450   -1.95435390707356    2.46904943848844
C         4.18985480972392   -2.82055066770408    3.34247888240087
C         4.64835730834658   -2.35330238096061    4.56441798085060
C         4.49343066693328   -1.02204756146557    4.90278062193180
H         1.42908521151215    6.04260672591314    2.70673627290725
H         1.02007873445212    4.41423568969721    0.32481265955256
H         0.11134591746273    0.61782731058743    3.16742572397945
H         0.38211251803016    2.32416778047496    5.50492302979111
H        -0.74882691170366    5.16024071676679    4.84354389148924
H        -1.45374799824367    5.20964097114727    1.94054831387432
H        -1.31027401490305    2.34797971949070    0.87388121669720
H        -2.12182495938515    2.71285226648256    3.75979212508892
H         1.49446145755328    4.00036880759009    7.18770099800256
H         0.84716988761245    5.56050505235284    6.63185442529510
H         2.47163354100128    5.88830406337925    8.48627154868120
H         3.08308608537554    6.61470179222148    6.99311299993831
H         3.72877731750171    5.06874301965749    7.55003667330919
H         2.32235174986301    2.61180566068081   -0.85738348870254
H         0.96144921687196    1.48137137732510   -1.02711150706555
H         2.95844915758434    0.61171284992188   -2.20229037096616
H         2.54680326130158   -0.44454619258192   -0.84271342394922
H         3.90318996666253    0.68001679670854   -0.71029193091954
H         7.30779944433900    4.55152631849707    2.53945831339782
H         9.17956530399642    2.98674572587504    2.31636640399433
H         8.78144038205810    0.64060809997758    1.67730500613096
H         6.47102710785502   -0.15041129625009    1.28017439361531
H         4.58509473832741    1.43215756432754    1.49770196652372
H         5.34003273075453    2.89051620411906   -0.49444587494594
H         5.01364862215478    3.50845456037104   -2.83833935283138
H         3.64587199572851    5.47533916161625   -3.43183989568872
H         2.60137185281117    6.82440512072311   -1.64465179474943
H         2.91564921598967    6.19679815638256    0.71545858435655
H         6.25281420246768    5.95205822685124    0.89129741023995
H         7.09772172127138    8.15774497958504    1.56715845392902
H         6.22228574194904    9.25268015187425    3.59658816883549
H         4.48131643954052    8.13589096652436    4.93987300310383
H         3.63768938002650    5.91383410345186    4.26620099658205
H         6.46649076880414    0.37192077222536    4.53618529867585
H         8.61569093508274    1.34822393735250    5.17596525367030
H         8.76955440983605    3.71734439737996    5.83687930720328
H         6.73483186896003    5.12570545909170    5.83869257926345
H         4.56019876444649    4.13048260362453    5.20607045110401
H         1.57361850705362   -0.04490914651540    5.38631520928671
H         0.61137782055089   -0.52967169153440    7.59850025579286
H         1.50471418881726    0.59535979165629    9.60823761327367
H         3.37214096223173    2.19294552691048    9.38733038660377
H         4.35068959690212    2.65543210399421    7.18890260260209
H         2.87685621313508    0.04888778471759    2.13651247731554
H         3.17301509124112   -2.32129337106021    1.52735932024805
H         4.31377911940128   -3.86151846387923    3.08141948508983
H         5.12280580170060   -3.03240676836960    5.25833977190759
H         4.82596219048672   -0.66831790036983    5.86923222419647

