94
CSD_code = COKWUV | q = 1 | S = 0 | Stoichiometry = C39H47O5PRhS(1+) | MND = 6
Rh       -1.04927136028863   16.52912000471876   11.95653327284957
S        -1.50195294956762   16.42539085421152    9.65464941643480
P        -1.32699193373396   18.77031321139044   11.71216446978317
O        -0.37843115446507   18.63029559122786    8.66576027594505
O        -3.37133796750700   20.45255646854269    8.49351569356404
O        -1.23340591069144   22.14597878725864    8.27875997817034
O         0.59111006156358   21.66079943703620    6.90069852942930
O        -5.04023729737700   20.45001410870272    9.98307590719597
C        -1.63950743544365   18.14640462484573    9.04145216595128
H        -2.30314436363069   18.09972156005075    8.16311714270628
C        -2.26640685792819   19.03139100177835   10.11185966493929
H        -3.27233169892666   18.64611939529567   10.33369243403185
C        -2.41301038368260   20.45567166152941    9.54699438404588
H        -2.75263372230206   21.14866575041595   10.32817003960572
C        -1.08554531362399   20.92493161045953    8.95382415036740
H        -0.36280563936991   21.04818004584579    9.77595948880902
C        -0.52338941461075   19.86779470985966    7.99667225761043
H        -1.21324579128289   19.76268986803708    7.14498447346349
C         0.81506305707248   20.40473390370037    7.48913198359300
H         1.51960727784157   20.47755245881165    8.33328681535079
H         1.24236797400711   19.76905026257610    6.71240542030267
C        -4.67135084894581   20.51673128283247    8.84096323215701
C        -5.54713672511816   20.67206464922849    7.63825181075652
H        -6.46284569086017   20.10208206469389    7.76945468742955
H        -5.02045357981558   20.36680712602008    6.74005857155229
H        -5.81435585403955   21.72404400341969    7.54857155773892
C         0.01011114638733   22.59513760800403    7.77651862028274
H         0.69573160300915   22.74964358090437    8.63908114745994
C        -0.21503470749523   23.87733438457469    7.02044579166453
C         0.47937088440583   25.03111344463014    7.35080793098419
H         1.18922108736698   25.01919059668946    8.16502748500296
C         0.26444878311675   26.19613981962809    6.63455635530490
H         0.80761928745513   27.09241160684793    6.89307051903374
C        -0.64333934585586   26.21161368316214    5.58960939744043
H        -0.80893331900765   27.12108472373202    5.03221268404230
C        -1.33764269058082   25.05946938297725    5.25961826671033
H        -2.04490685076654   25.07000047390295    4.44405020253045
C        -1.12432169077252   23.89342125744841    5.97194566162180
H        -1.65767178588855   22.98917695255072    5.72587862253085
C        -0.41951525565836   15.57914970103977    8.36130733989649
C        -0.69855215582877   14.08758961558689    8.50991978075267
H        -1.75777806126118   13.87991054837902    8.37715925665909
H        -0.39047437876242   13.71248029796862    9.48156703765490
H        -0.14561612661326   13.54136633724448    7.74890728901277
C        -0.87038291791304   16.04559535573818    6.98618852598353
H        -0.59466954224385   17.08063721206407    6.80688944550700
H        -1.94518074293013   15.92622322182443    6.86529019873297
H        -0.37910669940093   15.43571205358526    6.23038818762732
C         1.04115915742043   15.91101779816616    8.61106260431126
H         1.65695311567340   15.40764370613410    7.86800416531820
H         1.35676730398978   15.57498001611553    9.59667748061138
H         1.20963621602037   16.98187409443700    8.53446813484185
C         0.33277976962481   19.50849062238671   11.58794676107348
C         0.59890076850974   20.86392477076471   11.77638461207835
H        -0.20318967415991   21.54814623517465   12.01899467107746
C         1.89723407162806   21.33005925086531   11.66513703958065
H         2.10154851197780   22.38014394650410   11.81046069302492
C         2.93254868180908   20.45572640634290   11.37013452856979
H         3.94103020067226   20.82870306188391   11.27895662150305
C         2.67610734686621   19.10320694284332   11.20962557171033
H         3.48556599441394   18.42090448056000   10.99891087464920
C         1.38182594788019   18.63145953123173   11.32747117644814
H         1.16446742434884   17.56742031938614   11.22476066815537
C        -2.18021548811190   19.82544224222135   12.91888409053213
C        -1.46489032549993   20.25006418272129   14.04096538066355
H        -0.41205833840413   20.01792428514080   14.12853948059713
C        -2.08839908353925   20.98130022843782   15.03352624472584
H        -1.52241538732152   21.31135950422325   15.89122281677506
C        -3.43572150148923   21.28930961304242   14.92607742142165
H        -3.92146970975916   21.86384039143403   15.69932968624770
C        -4.15575316619232   20.85433108089425   13.82625196068008
H        -5.20534246320329   21.08714383212954   13.73648431307779
C        -3.54042856898518   20.11470725764673   12.83057990675586
H        -4.13046400698333   19.78907064208257   11.98854411846314
C        -0.56861610607534   16.68610122056764   14.06332900775686
H        -0.19150713715210   17.69255461628275   14.24368291684863
C        -1.94452021199704   16.55246404756354   13.91582932213498
H        -2.55010832470892   17.45543084551623   14.00680853689669
C        -2.74478190728770   15.29252317041478   14.11287166402015
H        -2.93980596078148   15.16253495365329   15.18161523527904
H        -3.71313423085897   15.43255737998387   13.62546970239832
C        -2.07397116512044   14.03272160412351   13.53915354913726
H        -2.84834863083801   13.29416987274645   13.32897809974523
H        -1.39290031243954   13.59194840594817   14.26583467677208
C        -1.32319156357102   14.32777984868999   12.26536162634265
H        -1.81207471058659   13.98223135980998   11.35624650601368
C         0.01824264687758   14.62533913475827   12.21670635509906
H         0.55275199161261   14.43970107960644   11.28511815253659
C         0.93342058900557   14.74786178076429   13.41061168249317
H         1.18360206223661   13.74470659576651   13.76896320309646
H         1.86627233343664   15.21078000169851   13.07925500265740
C         0.34322072210761   15.58582028837641   14.55954047899938
H         1.16605172127613   16.03470825355725   15.11687475095684
H        -0.20921160039030   14.95466479666506   15.25490093798851

