57
CSD_code = COKWUU | q = 1 | S = 0 | Stoichiometry = C24H24N5O3Ru(1+) | MND = 6
Ru        3.42044932371809    3.25684826223307    2.17352658632471
O         1.81714720360767    3.11435874852159    3.52972716650082
O        -0.26074624208251    3.77316237502309    3.11692515410193
O        -0.11155593640024    5.82213284928204    1.24129592830205
N         2.58025495789053    5.23868005351132    1.89645583425851
N         4.93729584477915    3.51798444515032    0.93778671295503
N         4.71131632115884    4.05915089649801    3.41694503728429
N         3.82502279571993    1.37920747424334    2.60284015221801
N         2.03586667945267    2.34902087924698    1.00409513675460
C         6.01881000092836    4.15198859578708    1.46289143587473
C         7.14184317734736    4.43529369631848    0.68749526586742
C         7.16778656879178    4.05802053378731   -0.64165263081959
C         6.06279832601286    3.39537919698213   -1.16536705557778
C         4.98003365441921    3.14901191440794   -0.34551888966421
C         5.88802192094329    4.46436491140320    2.88343692583467
C         6.85769685970781    5.08801520416320    3.66781002883367
C         6.61633064678355    5.28335740360157    5.01543795613506
C         5.41286242919084    4.83982521092398    5.55302793549511
C         4.49254380832178    4.23420312986174    4.71869214518669
C         2.76732692529745    0.56631714212744    2.37831914151064
C         2.74145687834821   -0.73553003144603    2.87698235504782
C         3.81762766963943   -1.21134387340001    3.60182417909236
C         4.91197286522405   -0.37700998855211    3.79482462835165
C         4.86899819256346    0.90492772078425    3.28267599500507
C         1.72366502553928    1.14149099436727    1.52696181445006
C         0.51731801196706    0.51200332585306    1.22746924088656
C        -0.37412916170882    1.12286504993938    0.36465990063962
C        -0.01577842529375    2.33077870376463   -0.21626711907110
C         1.19396780246218    2.90111193331281    0.13434249237450
C         0.93596386358884    3.96977248674920    3.21474133960895
C         1.52933589609888    5.40730604635885    2.92951023340878
C         0.46354695523289    6.38934795909538    2.39779362705718
C        -0.56790241375095    6.75691247030325    3.45713614407235
H         7.98527980495788    4.94424081633892    1.12369219488584
H         8.02757234372117    4.26934405341574   -1.25623645872319
H         6.04355684003334    3.07584149195080   -2.19420887096460
H         4.10411952201951    2.63518213001139   -0.72232483023919
H         7.78624165232248    5.41401050165999    3.22949278715550
H         7.35255473336708    5.76563532218343    5.63802942540665
H         5.19345473498347    4.96319984099806    6.60072002995175
H         3.54244007121786    3.86635024484650    5.08833313104897
H         1.88714839760209   -1.36732202946340    2.70051809296998
H         3.80980473798368   -2.21219322674484    4.00250751128322
H         5.77906785055919   -0.71230812335472    4.33980661845997
H         5.70622881860653    1.58032445353257    3.41952978820508
H         0.26521432237309   -0.42854982026594    1.68756480711889
H        -1.32625375149235    0.66644691886552    0.14700158047886
H        -0.66789478673531    2.83706993840705   -0.90851269312052
H         1.49460379562663    3.84248655273232   -0.30985590367195
H         1.97843327826963    5.77471572736144    3.85939717586472
H         0.96958085444697    7.30231404850499    2.04957694589169
H        -0.08989343927751    7.26781698935908    4.28852662149865
H        -1.31371992317840    7.41673187760347    3.02190213541525
H        -1.06057551347364    5.86038704743676    3.82376824733452
H        -0.69555225196707    5.11248807154656    1.55353467707547
H         3.21191013738523    6.04474464853900    1.92208824561231
H         2.07082934514338    5.30918680432782    1.00542394276321

