35
CSD_code = COKXAB | q = 0 | S = 0 | Stoichiometry = C8H12B2F4N4NiO4 | MND = 4
Ni       -0.00004588693962   -0.00013172036448    0.00004498434591
N        -1.66877702571567    0.74913567467256   -0.42982499157721
N        -0.29771463673671   -0.93525310834727   -1.60189800633589
O        -2.35087211994827    1.54440102080117    0.40708467185334
O         0.63280707144822   -1.70838009875159   -2.18088092772073
C        -2.23278874905329    0.29482306095107   -1.49991526707553
C        -1.37909180933976   -0.63106503134360   -2.24043118740464
C        -3.60493284365351    0.66984848398665   -1.93166373518338
C        -1.71890013615521   -1.16290775019779   -3.58636223222870
B        -1.99877427531267    1.19817432620507    1.82470406872645
F        -2.92030177747832    1.66814123056255    2.67385316064713
F        -1.87015378958313   -0.21614443177983    1.83061386605692
H        -4.12434866838574   -0.18650262702534   -2.35301210221628
H        -3.55802876054930    1.45384317298727   -2.68722134653088
H        -4.15113437895809    1.05724901797902   -1.07379658504381
H        -0.80826883899330   -1.51766185933738   -4.06548989308098
H        -2.19103616783028   -0.39697352098785   -4.19577222482887
H        -2.40478450480867   -2.00491749706964   -3.49368927431331
N         1.66871079276276   -0.74938012337804    0.42991351129982
N         0.29763957971121    0.93502621184388    1.60194764554910
B         1.99869378061481   -1.19841977133185   -1.82460310413841
O        -0.63286812001375    1.70813367473086    2.18095746974560
O         2.35074828333986   -1.54470962957217   -0.40699843171531
C         2.23278518029797   -0.29490960568768    1.49988954360206
C         1.37911240271706    0.63099453327764    2.24041106911885
F         2.92024326784592   -1.66832532007364   -2.67375768787279
F         1.87005024267724    0.21591473473029   -1.83044832747616
C         3.60505338693931   -0.66971080250777    1.93163091647384
C         1.71896676561316    1.16305460383884    3.58619527806724
H         4.12520533635083    0.18765211143809    2.35058335840758
H         3.55808033869439   -1.45188909436612    2.68936696714337
H         4.15054213757304   -1.05947286813608    1.07414583186945
H         0.80822258662676    1.51615299168344    4.06598768297408
H         2.19280103769214    0.39800199753800    4.19508045864695
H         2.40316029855058    2.00620801303167    3.49335484021515

