42
CSD_code = COKXIK | q = 1 | S = 0 | Stoichiometry = C16H18ClN6Zn(1+) | MND = 5
C         0.48837096580481    3.19066308505935    3.08500568816571
C         0.82459358535319    3.45337490400453    1.65535302928179
C         0.67555966825124    3.78989115891065   -0.51087336090276
C         0.31023910684821    3.97003044854625   -1.83590419885688
C         1.32078763335231    4.29547015611642   -2.71803694170212
C         2.64538198284497    4.44493589743624   -2.29712598554487
C         3.01518299585834    4.26088815780963   -0.98160608093516
C         2.01217861937578    3.92005104922990   -0.08192985635628
C         6.14079482408666    2.83613527659511    2.52515101193988
C         5.84219940949332    3.09849351965336    3.96124972641512
C         6.11278576557665    3.45108729953613    6.11199687304055
C         6.55990632096767    3.62308632835108    7.41231579650742
C         5.61827402483342    3.99716217322654    8.34889584015238
C         4.28117092110476    4.19702818234361    7.99863522408758
C         3.83316939965643    4.02279427848732    6.70591547596755
C         4.76351314689235    3.63852268509277    5.74693340503593
Cl        4.30950388719213    5.87673587217637    2.37609483603878
H        -1.04293835990492    3.34815848666296    0.67225513155809
H        -0.71337710666452    3.86999998337440   -2.15924341615206
H         1.08225593426270    4.45059116571503   -3.75834394038340
H         3.39325603439675    4.71935342459311   -3.02439355568265
H         4.02876322157052    4.40955489080978   -0.64639960693904
H         7.59517750547926    3.47866073298937    7.67609658000556
H         5.92002504805241    4.14734641120522    9.37321175469372
H         3.58365620242330    4.50178887982927    8.76311887573621
H         2.80272108333465    4.20210960412681    6.44655553811829
H         1.23885183527353    4.83699419364545    4.04723174430997
H         5.01500519694034    2.60646827954142    0.82908452969922
H         7.74909526044194    2.93431736719815    4.84877891193400
H         6.54496525693643    3.76031233855656    2.09550300314630
H         1.51542235151191    3.43245253527160    4.84404082719549
H         4.62422070742163    1.55930222090254    2.02341411923281
H         6.89761917949164    2.04556112518584    2.42814741520651
H        -0.53722714055299    3.51848731560144    3.29973442312570
H         0.54617754166783    2.11188454058153    3.26784510528213
N         1.48736168788835    3.85755348860204    3.92289514523835
N         2.05630057794956    3.68509995633329    1.27365732893402
N        -0.04683633674134    3.49300606837007    0.62681910948818
N         4.89089708134212    2.52196632221549    1.83373360953346
N         4.63910900674619    3.39521358960914    4.39447224571884
N         6.76060206310186    3.10202563627131    4.94746026572620
Zn        3.44858391005276    3.96454097027846    2.77265437293950

