71
CSD_code = COLCIQ | q = 0 | S = 0 | Stoichiometry = C36H26O2P2S4W | MND = 7
W         4.82473106723695    6.85375438499016    9.70778703927934
S         6.88147614384656    6.25282340773877    8.34491056023192
S         4.25228229023172    8.14678894790281   11.93420505960428
S         4.22494360138757    6.26274932197720    7.32109514085023
S         2.31304748341907    7.03754145205597    9.64936993951669
P         6.77229645234262    7.23540046609710   11.17471751682970
P         3.75746960168439    9.43195116405500    8.57565810107394
O         5.02615898741288    8.69461295003819    9.02557223266277
O         4.74140761325370    5.35055662660036   10.41486518550744
C         8.28137764814824    6.36929065906264   10.68712791568520
C         8.25156905433263    5.87630674418904    9.37624029616074
C         9.34503399193034    5.15841794060934    8.89926865052805
H         9.31791910138964    4.77342908868589    7.89252377760920
C        10.44302173504187    4.95971479823413    9.71394411019424
H        11.28573608565270    4.39680913884841    9.34056965471317
C        10.48651882644144    5.48894166666702   10.99791433679587
H        11.36180543346574    5.34678634408257   11.61362309479099
C         9.40600802623683    6.20122524226719   11.48569830341013
H         9.43033440015551    6.64073514102506   12.47371552240452
C         6.21796186103980    6.50426994532215   12.72988185821296
C         4.91861651996749    6.94671905241275   13.02639728680612
C         4.25875429017332    6.47140549353940   14.14706138767010
H         3.26667508619259    6.82950972637450   14.37335572792967
C         4.88271239486695    5.52094951359302   14.93892454362193
H         4.36758799598468    5.13321396039143   15.80530168191975
C         6.14760076264803    5.04920110873072   14.62339167447145
H         6.61019922162714    4.29334715303914   15.23986958696102
C         6.82169037938255    5.53276723126891   13.51201126198266
H         7.79776466766505    5.15050164585619   13.25240717640750
C         7.36504610337028    8.91627509618050   11.52857045791215
C         7.74325365077237    9.65864500840559   10.41108328829030
H         7.67792612200795    9.20733638222676    9.42447909025524
C         8.19045084020837   10.95632745348732   10.56955429443980
H         8.48589031015329   11.53406290579682    9.70603653300837
C         8.25207423071094   11.51350813149521   11.83827048333347
H         8.59920399766486   12.52876921589063   11.96337807652196
C         7.86921760234894   10.77560536332616   12.94688681313873
H         7.91525037618717   11.21639040314047   13.93172386357920
C         7.42432083518489    9.47344343245133   12.79882437073604
H         7.11367600356194    8.89246119333426   13.65611870317102
C         2.91676317196986    8.71631740447912    7.15199876135864
C         3.13826387693640    7.43613247608919    6.62415662160469
C         2.42676908255464    7.07081564480864    5.47485013536649
H         2.61724135943410    6.09372427423200    5.06060563014469
C         1.49460459824080    7.91352512714608    4.91525641530215
H         0.95186232024101    7.60142751839498    4.03574073647533
C         1.22442619560473    9.15248012719190    5.49126849463658
H         0.46794430558191    9.79773878351161    5.07220953500015
C         1.93410808548821    9.54553151231696    6.60317512318650
H         1.73977869788160   10.49913871392991    7.07802032205152
C         2.53454466844221    9.72405926755076    9.88192829552834
C         1.84299746380909    8.58424357958579   10.31516984859809
C         0.78862889340439    8.72117721773863   11.21308024810053
H         0.26141301933600    7.83695042304663   11.53352064229495
C         0.44439639843196    9.97427241253877   11.67542213888733
H        -0.36972532128701   10.07855270067232   12.37699296380648
C         1.13134623174766   11.10398595244410   11.24627136574861
H         0.85005959728122   12.07953675927910   11.61227833992968
C         2.16787959982994   10.98434237469737   10.34162356430841
H         2.69050784223048   11.86146959240693    9.98832481091049
C         4.42974244316531   11.05718226615399    8.12192018077807
C         4.40142449391532   11.60724126004059    6.85013550692768
H         3.89917498249221   11.08965304654706    6.04597295571609
C         5.02915048582085   12.82031124272380    6.61781254029724
H         5.00894278220281   13.25108656244000    5.62795725642154
C         5.68493275140764   13.47639840047756    7.64614205016467
H         6.17019467379272   14.42249294236831    7.45772825754555
C         5.72969907376186   12.91648298602375    8.91400491835493
H         6.24949409560385   13.42077650725008    9.71497072709409
C         5.10879199752274   11.70518811552626    9.15111460254954
H         5.14903133785328   11.24381990698768   10.13111241267001

