29
CSD_code = COLFOY | q = 0 | S = 0 | Stoichiometry = C10H2F12O4Pd | MND = 4
Pd        0.00011689322245    0.00034496566571   -0.00004258173015
O         1.79930206362083   -0.64913481879625   -0.57094387951994
O        -0.67636474015975   -0.05189304087181   -1.87735756894202
C         2.11355344633847   -0.91666212850560   -1.75537616546222
C         1.33410062201379   -0.83486522876790   -2.90980006094775
C         0.00623398036459   -0.40836766712301   -2.86743535378383
C         3.56532310995454   -1.40168574980602   -1.97533372134196
C        -0.71933658438016   -0.37910516840253   -4.23272815364260
F         4.22883203525054   -0.57125051071953   -2.78994022238364
F         4.24432763744687   -1.48412109212998   -0.84028264436270
F         3.58681210233704   -2.60893868228752   -2.55393342607957
F        -0.05731099259449    0.38017806800321   -5.11455615692176
F        -0.79377125230962   -1.60780747064886   -4.76018900557100
F        -1.95285167455306    0.09545341175610   -4.13517409346978
H         1.76899731649466   -1.10693436032447   -3.85813293668316
O        -1.79941753134295    0.64879336792306    0.57097594072993
O         0.67651447545800    0.05230156052339    1.87729610549447
C        -2.11371732142436    0.91612784280487    1.75544124887216
C        -0.00603854142186    0.40894064493872    2.86734898715486
C        -1.33407567621022    0.83490085734209    2.90978146784026
C        -3.56574740412136    1.40032008932289    1.97553530093700
C         0.71973872877507    0.38040840155877    4.23256133787724
H        -1.76895039172066    1.10700796555561    3.85811440830201
F        -4.22846423429271    0.56979679874537    2.79069503439901
F        -4.24510117213772    1.48173260413676    0.84061936990274
F        -3.58793981063769    2.60782379027592    2.55357885806015
F         0.05897320480570   -0.38020847734089    5.11414979138245
F         0.79229782763394    1.60902421413553    4.76041643137784
F         1.95396388359035   -0.09218018696359    4.13471168851228

