67
CSD_code = COLNEY | q = 0 | S = 0 | Stoichiometry = C26H26N6NiO8 | MND = 6
Ni        3.42097983060882    6.26903783714403    1.94825708521942
N         5.45217968035891   10.22422630983051    2.00795483773551
H         6.13141140358367   10.97163053832935    2.01412984284356
N         4.46213794883491    8.28588050325470    2.25125452052718
N         4.76983428631466    5.12202001524600    2.59060672953731
N         2.73015582591740    6.19011135989478    3.70225615414760
N         2.19725325774071    4.58597990994067    0.99291889999103
N         0.80661055530108    3.38036181471224   -0.19398712013211
H         0.04890456586117    2.77617007220311   -0.47829647501182
O         4.56171718690518   12.60754863221849    0.94355182816724
O         2.55084558065206   11.77655830073307    0.47632878220358
H         2.02286105572563   10.90860301371070    0.54742751671439
O         1.41620045804936    9.46218514551523    0.78594925230484
O         2.02107453010816    7.41659754642028    1.37491337659259
O         4.17954873186303    6.30038385902101    0.20486681721159
O         4.02972884549376    5.63037105890994   -1.89891476759947
O         2.40405548603138    4.21446703451292   -3.34419449616616
H         3.08589324857481    4.80172415633625   -2.86685169922487
O         0.64346167372513    2.92495554432203   -2.90824345031193
C         8.85389695665903    6.99537784019201    2.50800465078323
H         9.49702067501423    7.66144915491620    3.07915882001927
H         9.44327466428174    6.55490195019788    1.70813818653497
H         8.51615624306351    6.19722128408540    3.16700978851543
C         7.66736936147920    7.75624152035659    1.93363330767016
H         8.02432903432051    8.53956788790506    1.26295966503582
H         7.03461114407356    7.08392625154270    1.35247800458605
C         6.81193413515197    8.38688950157909    3.04256350475271
H         6.53238678313352    7.61379651826450    3.76153411343525
H         7.38050752368790    9.16127491547003    3.56106954007347
C         5.57183143642036    8.95907338126025    2.46028540820717
C         4.19756111706483   10.37165805137055    1.47736418295737
C         3.77592206291819   11.68551340632581    0.93065870085379
C         3.59461907887874    9.14048376409692    1.63023576612406
C         2.24466335000560    8.65116161399427    1.21657778773082
C         5.81955937931901    4.65980201553113    1.92545272781642
H         5.87649596277015    4.91346581201233    0.87567040230069
C         6.80721700102813    3.89403326670869    2.52484782919410
H         7.64339655268188    3.54249738589406    1.94266380502570
C         6.69615995285913    3.59757968458292    3.87420925074578
H         7.44881725110883    3.00893548479213    4.37609449542815
C         5.59778908950124    4.07202510197461    4.56947107334085
H         5.48796094247034    3.85944647099895    5.62044118381861
C         4.64355297908712    4.83223097364685    3.89746168476942
C         3.44217264160674    5.39168281675731    4.51651722530244
C         3.03242584958955    5.13363368475463    5.82251133108813
H         3.60833612788572    4.48160626693953    6.45888949536717
C         1.86972687317871    5.71758419702729    6.29380398618118
H         1.53212930968722    5.52827966524050    7.30132927338528
C         1.15119826479583    6.54623583236022    5.44642615155657
H         0.24155189371165    7.02430733615546    5.77156588933234
C         1.62036628083877    6.75371584341436    4.15874870965411
H         1.08344244867825    7.39124678603507    3.46962314070354
C         3.65096657419133    5.62113769647944   -0.72159566873539
C         2.52443753224596    4.72166521149596   -0.32738969028217
C         1.66460884733824    3.96008283699084   -1.09119132099437
C         1.52965054887737    3.66415580346536   -2.53935126130467
C         1.15866924068121    3.78180742375331    1.04477299106207
C         0.42392570059351    3.42490300363516    2.28456927595440
H        -0.01591479343509    2.42996104895269    2.19197271085009
H         1.13021237771562    3.42192401311965    3.11748480412319
C        -0.67376443940965    4.46358732128923    2.55888515936308
H        -1.42406385853492    4.41367730535177    1.76805746916506
H        -0.22311349651223    5.45659888577380    2.52725891839219
C        -1.33793314012414    4.23090664485225    3.90846080029102
H        -1.79909660888124    3.24624908213006    3.94445849177358
H        -2.10986034162379    4.97575547759654    4.08297267185512
H        -0.60736066172415    4.29642992647225    4.71300793144689

