83
CSD_code = COLQIG | q = 0 | S = 0 | Stoichiometry = C35H43AuClN3 | MND = 2
Au       11.81646409176119    9.55837828673634   11.01694792275518
C        13.78255325132772    9.19643226817130   10.88557447130550
C        15.83176434688906    8.27836180804886   10.62048253694198
C        15.96614904420855    9.64284749127316   10.61917576204481
H        16.83320796361031   10.26013467009663   10.51470719329064
C        13.98119057817563    6.74479999964028   10.84856086876265
C        14.85297479524323    5.71296067723876   10.68983162189588
H        14.47295084970336    4.70465879803857   10.72405743874010
C        16.24152278244405    5.93363284135687   10.50113706346516
H        16.89546431233386    5.08385304832277   10.38693300598946
C        16.73224524686738    7.19900892157915   10.47597796859045
H        17.77990587502686    7.41490628232849   10.34476165060181
C        12.53709158580218    6.52636963031964   11.06809363264887
C        11.99126951788240    6.63321063884630   12.35245547442289
C        10.62914218240022    6.41253338811839   12.52875948079962
C         9.83585800188700    6.11074846418551   11.42728949663226
H         8.77251749803247    5.98704922295792   11.56527339104143
C        10.38348781552047    5.98114277916814   10.16745474042473
H         9.75569583203418    5.74316564347864    9.32231661925144
C        11.74114950907180    6.17294850888330    9.98747621700764
H        12.18547512342167    6.08116370459637    9.00671272110621
C        12.86903820103839    7.04058251864254   13.50421305423296
H        13.81276196418030    6.48761803295676   13.47701831367144
H        13.10817352126063    8.10449017187792   13.39611796007045
C        12.16898703792140    6.81332948389884   14.84966980762750
H        12.19011177467856    5.74901496744105   15.09583623465440
H        12.70215557324563    7.34875348549337   15.64060868108245
C         9.99230434315342    6.48987793973271   13.89633895741415
H         9.04975647595570    7.03585050597727   13.78602509326802
C        10.61531941044985    8.66991619308135   14.72733873041010
H        10.80623347905215    9.04625146078401   13.71341933272981
H        11.28159639325792    9.17496155069835   15.42564120075769
H         9.58795888139826    8.92210978951297   14.98864139014947
C         9.65600668110186    5.08655004840199   14.48249224046660
H         9.96547362751588    5.12084049435159   15.53277687445994
C         8.15040889686134    4.81443214513433   14.45268136343429
H         7.80960227312139    4.75651382097224   13.41669860515012
H         7.61858049265731    5.63493826219870   14.93836580218449
C         7.82370791229345    3.50397438532776   15.16373927987581
H         6.74766916426195    3.32085711313734   15.12655801804672
H         8.11301823394076    3.58277101480279   16.21437251562767
C         8.57178325792773    2.34154189407763   14.51997063513141
H         8.35634353883729    1.41474627911619   15.05631406179031
H         8.23236006640169    2.21854560782261   13.48882990218423
C        10.07226668892381    2.61289135419324   14.52647174760425
H        10.60196842756079    1.78943427802174   14.04170427151554
H        10.42488763137976    2.67570190607009   15.55894075389829
C        10.37968720724820    3.92142847576738   13.80268473317169
H        11.45835724519781    4.09133836257696   13.79151592787453
H        10.05057987058231    3.84037934825996   12.76441230288518
C        14.41690378144356   11.54684549576979   10.84922705336378
C        14.10803155477321   12.23546167683442    9.67541717202812
C        13.82500882721247   13.59120183828393    9.77276916183675
H        13.57725722408331   14.14904017460528    8.88358249195343
C        13.84552531006428   14.23358865811399   10.99534123597338
H        13.61758073779649   15.28727186381143   11.05289362539087
C        14.14544784542839   13.53107001378295   12.14634175066819
H        14.14445132363495   14.04172437459050   13.09634597555297
C        14.43776056307054   12.17512882543496   12.09581019135768
C        14.05360649652529   11.53884528268781    8.33688856090093
H        14.33494602371713   10.48851561589619    8.46441537875909
C        12.62582601849557   11.57427290445594    7.78718348096189
H        11.93562522008287   11.12781453118363    8.50160346778217
H        12.56979716475766   11.01546146812972    6.85578166831290
H        12.30779758770819   12.59562699394655    7.59643361609066
C        15.03889129008336   12.16987000092975    7.35020933151913
H        14.77184256509850   13.20151089993369    7.13818377263639
H        15.03188960998204   11.61660744721562    6.41393071793028
H        16.04950115023767   12.15307220979777    7.75394853595350
C        14.73046953722040   11.40894382004296   13.36425296607563
H        15.00293405293698   10.37919093752437   13.11048126827825
C        15.90617296304301   12.02309678380990   14.12707121017220
H        16.78772703275686   12.07843959432170   13.49137286955443
H        16.14427194042670   11.41259375492483   14.99519363250688
H        15.66849217899830   13.02560939126753   14.47166718351626
C        13.47395329511050   11.35876250405880   14.23667408319950
H        13.64931071635590   10.73591349397028   15.11128358515527
H        12.63932891243572   10.94501354868281   13.67313059452906
H        13.19628916082183   12.35421572868491   14.57247017063162
Cl        9.60121085002589    9.93117033805770   11.15676399693224
N        14.46750480015008    8.02970022419785   10.79522512686409
N        14.71396630889098   10.15767952376544   10.77963162365965
N        10.78679948161007    7.23699211753353   14.86279743086261

