53
CSD_code = COLRIE | q = 0 | S = 0 | Stoichiometry = C26H20MoNO2PS2 | MND = 9
Mo       -0.69420582025149    5.31649347203917    6.37003381113088
S        -2.09146648771797    3.18983159204342    6.03787311432577
S        -5.01214456170376    4.89171918705442    2.79371662307880
P        -3.81224601819190    3.53433566127802    3.47749102872526
N        -1.97366067408529    5.27815790753626    4.68649985749367
O         1.53454751244607    3.20352013173860    6.11906023104519
O         1.22755275056270    5.97166697928349    4.05507180909315
C        -2.57009970638202    4.12761675325284    4.69424033012177
C         0.69700171346729    3.98194180633231    6.23825218078569
C         0.50839763815283    5.76339164843790    4.92794865600649
C        -2.08547441568487    6.17967123850973    3.62224504249143
C        -2.55717773331486    7.46959074931330    3.84205158711232
C        -2.65419228774940    8.35528342211380    2.78629885273194
C        -2.26923762222566    7.97083911060874    1.51294652244867
C        -1.77807048798576    6.69483841704484    1.29657230453871
C        -1.68257862847430    5.79918512376114    2.34394196752810
C        -1.89823850543301    5.53780830500293    8.37172992236517
C        -2.26774619083170    6.58167494080404    7.49554268596712
C        -1.12986912397959    7.38037029231861    7.25612589404234
C        -0.03765329892260    6.80738452568368    7.97465112889807
C        -0.53090652526633    5.67080805390000    8.66930241291614
C        -4.63091654467547    2.21031039760417    4.42448399575373
C        -5.91101873744838    2.44996754879946    4.90670936575858
C        -6.55946768765678    1.47799982111537    5.64626807100673
C        -5.93110677200162    0.26954668485348    5.89912341044120
C        -4.65727719572824    0.02868651021405    5.40853547298301
C        -4.00187899050344    0.99415497359255    4.66759922566677
C        -2.79515462969097    2.64324888525967    2.24935065679144
C        -1.49772554744817    2.21992956026645    2.51990509481813
C        -0.78832174725129    1.54384789861838    1.54401935147157
C        -1.36657394057930    1.29197271657854    0.30941634422893
C        -2.65666219275827    1.72035868163884    0.04128834453368
C        -3.37213058814751    2.39979258318285    1.01048736770259
H        -2.87870781904929    7.76004881111248    4.83145230327089
H        -3.03905288185602    9.34932160720827    2.95844613676522
H        -2.35089329077273    8.66538709604752    0.69092396741717
H        -1.46928095126079    6.38988591792242    0.30813704163640
H        -1.27103284572922    4.81095691535930    2.18867300083057
H        -2.57735890887781    4.82515305503580    8.82363770038359
H        -3.28626204116463    6.81645690950255    7.20777492863181
H        -1.11693144113296    8.34737708947831    6.77080009394969
H         0.92018111469885    7.28616514643126    8.14820345407183
H         0.01469184654261    5.09656165268521    9.40663097877250
H        -6.38725406085776    3.39665591632022    4.68809249371505
H        -7.55419739508515    1.66295869116025    6.02404153621371
H        -6.43674660585092   -0.48995370898612    6.47713946185921
H        -4.17167132486334   -0.91590547690925    5.60391830150343
H        -3.00971722767817    0.80811681890493    4.28318674977934
H        -1.04024947115584    2.42504872119612    3.48201058080551
H         0.22041561372466    1.21691491202599    1.74822487664461
H        -0.80546189471161    0.76494584773249   -0.44783132958872
H        -3.10335024733380    1.52881009093740   -0.92292349061008
H        -4.37471712008921    2.75884840715676    0.81887855003406

