73
CSD_code = COLTED | q = 0 | S = 0 | Stoichiometry = C32H30N4O4S2Zn | MND = 4
Zn       -4.41136733137270   -2.46096337644979    3.89051636093828
S        -5.21272357109180   -6.84656099927386    2.93558502190909
O        -4.61840895051681    0.47579909468688    4.36581050691810
N        -4.92130633555011   -4.13690841433330    3.31825127172768
C        -8.30040821705454   -6.85803926542076   -2.20769093189104
H        -8.98058133786260   -6.64367186819296   -3.02845979623644
H        -8.76803234630682   -7.57068946864763   -1.53256146563552
H        -7.40744556375918   -7.32823623160584   -2.62068597687628
S        -1.50379814005356    0.49798741657980    2.22282608193691
O        -5.79935616210854   -1.37867644312582    2.88459647478960
N        -2.87073522381517   -1.65440476290693    3.26255046995435
C        -7.92086960050240   -5.60800071605412   -1.47957169638465
N        -6.73619235964347   -2.17101328660442    0.59643726550804
H        -6.41546543025963   -2.33605545856937    1.56821274936129
O        -3.06367960524068   -3.59671857211326    5.57663874870365
C        -7.47324308711245   -5.66271103236784   -0.16243883404774
H        -7.41183556308481   -6.61291837761733    0.34589842155408
O        -5.08830203506029   -1.98658179986584    5.65855525943233
N        -6.29807135591547    0.01404940432430    6.70627221074606
H        -6.08832388167392   -0.67170686028556    5.95068680728751
C        -7.09737443044659   -4.51714824072733    0.50471580419222
H        -6.74379955486012   -4.57140661443946    1.52243588133345
C        -7.14842992833455   -3.27767615857755   -0.13524386103673
C        -7.60251625691801   -3.21192378000290   -1.45160621285609
H        -7.66217343271680   -2.26796307289094   -1.97112222974246
C        -7.98250610636133   -4.36775968604116   -2.10571761134599
H        -8.33109960843019   -4.30473119473862   -3.12644727109909
C        -6.61240998669440   -0.92050652265681    0.21784587697888
H        -6.89140527973660   -0.65503856179751   -0.79583599790616
C        -6.11436405229427    0.08956227444446    1.05105701087409
C        -5.66219576660460   -0.21632107854477    2.38117643385200
C        -5.04921303315769    0.85048201478929    3.12676323997451
C        -4.94099964715121    2.10790087770253    2.59773695329090
H        -4.47102392216306    2.90170919118175    3.15614052571299
C        -5.42512608176702    2.39123167382288    1.30742690854569
H        -5.32320532574039    3.39401163479119    0.92354772524905
C        -5.99069694426659    1.41222928324808    0.55241839401830
H        -6.34377319893444    1.61835713750032   -0.44708304785652
C        -3.74959324206946    1.34736914947063    5.04795664223059
H        -3.37512702086259    0.79237696560507    5.90734434890555
H        -4.28009039912185    2.24281418236737    5.39370436472886
H        -2.90627001818727    1.63872246940356    4.41601036117624
C        -9.76743698073408    4.22693980245555    5.13931775851694
H        -9.88742640119331    4.23682090197995    4.05927240063518
H        -9.38198030525076    5.19170023983601    5.46230320950714
H       -10.75104216525838    4.09410066857863    5.59067532394844
C        -8.85605936898400    3.12036830612009    5.56675209500144
C        -8.57978333381654    2.04890482585915    4.72338724778387
H        -9.01729122035683    2.01914615915511    3.73652317199079
C        -7.74989188941264    1.02461692284938    5.12812730496482
H        -7.53805410365168    0.19716756135862    4.46821722435131
C        -7.15920333981223    1.05341573287192    6.39286313586553
C        -7.43684798134816    2.11963665847024    7.24788224545492
H        -6.99808713848104    2.16561107697704    8.23261597059655
C        -8.27736944825793    3.13267993677053    6.83229470069200
H        -8.48481583237394    3.95536231387796    7.50097151810688
C        -5.54634575494263   -0.16933352054171    7.76803747676074
H        -5.64568061588447    0.50733098913755    8.60988520104534
C        -4.58204944198147   -1.18247235393715    7.83261181023888
C        -3.75855350923363   -1.32802864585772    8.98106912166085
H        -3.96118241306704   -0.70587130108951    9.83986733652746
C        -2.73298582285408   -2.22100870668927    8.99332498792217
H        -2.11016460974664   -2.32758062458527    9.86751615246442
C        -2.44796134228950   -3.01251986113470    7.86139494291766
H        -1.60918818730592   -3.68954090821628    7.90111285868014
C        -3.22200357532725   -2.91683226938500    6.73692962251808
C        -4.34864769052314   -2.02384116805946    6.69114443518906
C        -1.98214683157454   -4.48783364388136    5.44801585548985
H        -2.05983703507430   -4.90076442738296    4.44465636040861
H        -2.05127031608536   -5.29627631520938    6.18277798603643
H        -1.02579779738390   -3.96694090891902    5.55611348447996
C        -5.02396602962084   -5.30258508690120    3.18211426553979
C        -2.30009018455448   -0.73174328127540    2.80737160512077

