48
CSD_code = COLTUT | q = 0 | S = 0 | Stoichiometry = C18H17N3O9Zn | MND = 6
Zn        7.39362888336442    4.68156474555194   10.02580239099930
C         7.59697738119269   10.63363672219327    8.76768460493394
C         6.90264420186417   11.58233426252577    9.51382419740907
H         6.91898838622365   12.62532842980308    9.23398462197088
C         6.17970826943506   11.16326696539466   10.61613987664736
C         5.40137962863270   12.22419599422386   11.50865979145587
C         6.11761624349817    9.82282426338955   10.95395227848710
H         5.56062659957774    9.51539972819896   11.82638557824996
C         6.78099424097363    8.87523030327765   10.17488223104511
C         7.53849260748225    9.28464497292818    9.08592363424355
H         8.08203077358360    8.56669723807496    8.49058084765776
C         6.69139154798198    7.42957310167955   10.50825159147427
C         7.41375814274527    5.32135684402348    7.11575318383998
H         7.38664416207645    6.34314440358794    7.46290954438656
C         7.38563895302170    5.02006099517265    5.76789516437902
H         7.34295912187893    5.80661571885485    5.03349425269737
C         7.41165740820293    3.67765878907908    5.39340359264652
H         7.38366435951857    3.39890280325003    4.35118834592557
C         7.47156058509295    2.70956970144794    6.37202645653751
H         7.48386994188006    1.66877596891647    6.09443272703799
C         7.50808458247649    3.08831229116376    7.72121303936512
C         7.59092820933156    2.14867965899980    8.82308481201961
C         7.73338566539045    0.76485025520921    8.64619939846412
H         7.77541850873560    0.34589406426813    7.65494327555564
C         7.83311498292754   -0.06178101175454    9.74148287494968
H         7.94441369899052   -1.12769965257047    9.61721033729220
C         7.79858117599769    0.50394806681349   11.01775687133498
H         7.88474356048784   -0.10588804588793   11.90144184318052
C         7.65579610999394    1.87176148168381   11.11832735967746
H         7.63749459400329    2.35291207597636   12.08503421512701
N         8.37476461051806   11.03825168672726    7.62716548796237
N         7.47469519960811    4.39435115864792    8.06067098279257
N         7.54342559134265    2.67506527820742   10.06901658780270
O         8.75841660705563   10.16160164911128    6.87325400967534
O         8.59729219761808   12.21854687328771    7.47398124283369
O         5.01172688993550   13.18551787259690   10.86296986301351
O         5.33060793654088   11.88351027155565   12.68125156149147
O         5.84089548527426    7.02778413083665   11.33386574447295
O         7.50131450052124    6.64654973042642    9.92892750319299
O         9.54326798614385    4.87655037479473   10.46473324189274
H         9.73724405769437    5.73209051671162   10.06491014144106
H         9.59424951963454    5.01525421359608   11.41660784714003
O         5.21326838086413    4.79156557905077   10.07922206760540
H         5.15822819550352    5.66643030791349   10.53466498406292
H         4.49814029946099    4.24907188526883   10.42028433034067
O         7.14741663550553    4.94017105793924   12.21321076370775
H         6.64860685689672    5.79627930258795   12.10876476985531
H         6.60984652331606    4.40363697527911   12.80102993172176

