44
CSD_code = COLVAB | q = 0 | S = 0 | Stoichiometry = C16H14CoN13 | MND = 6
Co        4.15738882095750    4.30745925034392    3.94865910862429
C         3.97748296978449    2.39661993807077    6.12091142367706
H         4.73328834675478    3.04378299724679    6.54012122155148
C         3.44785854851000    1.35594312913061    6.86022674395388
H         3.78242619391925    1.19235057741588    7.87143877679198
C         2.47631337614206    0.55582807611298    6.28166103277623
H         2.01234616924706   -0.24658188448075    6.83421677054984
C         2.11248965129945    0.80229152524988    4.96820629361287
H         1.35519265187917    0.21046453908034    4.48210100154511
C         2.71961288969630    1.84638800573972    4.28524443423776
C         2.36326422555524    2.14680471523537    2.83318285241059
C         1.62574226342142    3.48196769789385    2.87076514284404
C         0.29121459652843    3.56880302610950    2.50140432600402
H        -0.23950482675978    2.68577645347732    2.18822104848463
C        -0.35002854231286    4.79442967592639    2.57137595655578
H        -1.38677919626537    4.88405412323420    2.28578587390156
C         0.36572081869897    5.88958078031408    3.02503776143610
H        -0.08649477606351    6.86471112171302    3.10198123894569
C         1.68351981262888    5.71172182585057    3.40194961830669
H         2.25665239855987    6.53696096264762    3.79587685266139
C         3.65430584018181    2.29943798535778    2.01736382811327
C         3.91596791505698    1.46379126564418    0.93955231103601
H         3.22761135802536    0.68140971184837    0.65887317148719
C         5.08032181275442    1.63097426539769    0.20717456977159
H         5.29465531054514    0.98303145912776   -0.62856325539177
C         5.94589075964832    2.64790582349826    0.57030604157063
H         6.85861646566519    2.83065534027843    0.02766343833699
C         5.61938133964786    3.43655441615876    1.65650108353634
H         6.26271200149542    4.24911212007094    1.95820967586034
H         1.22975454303281    1.30763644489180    1.36118508348037
H         1.93420570592036    0.21008466319388    2.36325666851019
N         3.60481027556328    2.65460613278803    4.86820290112694
N         2.30460242037087    4.53561664233607    3.32598231892278
N         4.50914209147261    3.26087263185157    2.37366148852159
N         1.48133739733760    1.11588349641665    2.32407833206774
N         5.87803690036357    4.01780308327503    4.58709502381127
N         6.90449153603159    4.56455878374769    4.43093242857052
N         7.96683702886346    4.95040798715910    4.34994941775221
N         4.69886909038321    5.82318825576199    3.02076851394450
N         4.66513346574562    6.97216669843384    3.25503897792136
N         4.66486445790207    8.10384885915205    3.31359562602286
N         3.71061916668390    5.31471533451842    5.44581975053182
N         4.24101278860787    5.55231499338261    6.46460020436594
N         4.60461393652017    5.83266706939751    7.50068492125740

