107
CSD_code = COLWIL | q = 1 | S = 0 | Stoichiometry = C54H46Cl2NOP2Ru(1+) | MND = 7
Ru        9.48648473975745   25.45669232032936   13.99255089791930
Cl        8.72736274128451   23.27456518656917   13.49220659818561
P         7.33405366895359   26.32787105037745   14.08223050980916
P        10.33279888746852   22.44660261328521   17.55638842840602
Cl        8.87645824782141   26.05048788284211   11.79559872611180
N        11.38626919701502   24.69667336031555   13.45327901508212
C         9.73116253796225   24.56401861880373   15.98767604694615
H         8.74974003071440   24.21994343917885   16.33586647586830
C         6.55511835814998   26.08344945681097   15.72497851430327
C         7.39523567668954   28.12109894720204   13.80842191139718
C        13.38758898116019   25.93732474633760   15.36349052053086
H        13.22554663237409   26.37989096513488   14.39127019440206
C        11.13395125171349   26.81635758881478   16.16269375724535
H        11.01693503164264   27.48891291716150   17.02386526095665
C         8.16280921827851   30.29864145364154   14.49005527543517
H         8.65031976485749   30.93355932808560   15.21671574140463
C         5.85406301707178   24.39129637035085   17.29364982538482
H         5.72852808757930   23.34939427017876   17.55178912806794
C        12.43307027849076   26.06918335870954   16.36278195933963
C         9.88338804335579   25.95067798234765   16.06898607886930
H         9.01805165298716   26.47243137549514   16.48846334666165
C        11.54782047673495   21.12520343294807   17.74838445032491
C         6.91633798758099   28.67139445648631   12.62363593745044
H         6.45034446404200   28.03298279093372   11.88684454931413
C        10.33485258870913   23.48514955018646   19.04079642248372
C         5.91398675900185   25.78028409290027   13.08675292381848
C        11.62771042798500   23.03888497184693   15.22743559748103
H        12.17448782494963   22.13693263920521   15.47369980384899
C        13.08924834572898   23.02546285352172   13.29004690450692
H        13.55740522441810   22.15354681759832   13.72003226825174
C        10.69939178076082   23.47512008459509   16.09879656383636
C         5.47269212626410   25.38174385701542   18.18696594503317
H         5.05701066712528   25.11279850001475   19.14660394621209
C         7.66750939044916   30.84343285901720   13.31649764871285
H         7.77065179308238   31.90123527030469   13.12757974478846
C         7.05037211192283   30.02689380486120   12.38361033616621
H         6.67615389562905   30.44606272247471   11.46191741552664
C         8.04677497196156   21.35308612229021   18.63187739135981
H         8.51555558859050   21.55447307365616   19.58607070951888
C        13.54200072598211   23.55051398126941   12.09724358299035
H        14.36266780382000   23.09399878124707   11.56638571822708
C        14.56616873726710   25.25133642949426   15.60670761721495
H        15.29863279371398   25.15577750985389   14.81960915432485
C        12.01287867405683   23.62020379175285   13.96017052637854
C        12.91113504161857   24.68356880232953   11.60660671842330
H        13.22279546350161   25.14854030450977   10.68579023552565
C        11.13339290019377   19.80187380483168   17.86430646826856
H        10.08135334538191   19.55885203140800   17.82593835094247
C         8.68748138944243   21.71715397823024   17.44651492313805
C         4.81166810973622   24.37853132513431   11.48447421085286
H         4.85128619011382   23.56743811315070   10.77314402107108
C        12.90710097838912   21.44172138284226   17.78507885807435
H        13.22244721341676   22.47146137932878   17.67858139478695
C         6.86157938558233   20.84584587216219   16.16967413542751
H         6.40019059445491   20.65784965388173   15.21310151419517
C         9.28185042864276   25.21515473494634   20.33168149993234
H         8.47695994344841   25.92202691215031   20.46392198820330
C        11.33343885668769   23.37308382877452   20.00332205085257
H        12.12095809895123   22.64320343427033   19.88578255306919
C        13.87765591302005   24.86139346997231   17.86591260533254
H        14.07827488790465   24.47832448033397   18.85606751405151
C         4.71321232427207   26.45435348679644   13.31399224225414
H         4.67914805059790   27.26359737584217   14.03226629401313
C         6.14360778113434   27.06973294241241   16.61159147430875
H         6.22714480808445   28.11359425790683   16.34464012051900
C        11.30674725831200   24.19158178280901   21.11912984728300
H        12.08014427631624   24.10268677315236   21.86652726133401
C        12.07660763739592   18.80174458243267   18.02588535321183
H        11.75689109404079   17.77527414364188   18.11611137356962
C         6.38969990138507   24.74057024896134   16.06857118342302
H         6.67384038971145   23.97932222824005   15.34938403896957
C        10.28904670151609   25.11827339659391   21.27984377777126
H        10.27387964826668   25.75586685258437   22.15013718549141
C        11.84573254976284   25.21197963799715   12.31479194354440
H        11.33150023277730   26.08798600385979   11.93525158355874
C        14.81365484405516   24.70909740958141   16.85488751244097
H        15.73948369796095   24.18819037783620   17.04539215192909
C         8.03565038748251   28.94358717948322   14.73282989066367
H         8.43767394445711   28.52145916630320   15.64589126350352
C         9.29578907171246   24.39911599652332   19.21562003663186
H         8.49203809102580   24.46014505906641   18.49583643767605
C         6.81147961823705   20.73681427111634   18.57293550549441
H         6.30944732747768   20.45367476983900   19.48557438271298
C         3.62543248685090   25.05746843850880   11.69868601274609
H         2.73602853058137   24.78022452618827   11.15299661203585
C         8.10486211315606   21.45500288244164   16.21046042258580
H         8.58984568910572   21.75425548623531   15.28995012781711
C        13.42533165794787   19.11578029504854   18.07064137623302
H        14.15659787443113   18.33281296485353   18.19782695480263
C         5.95770341855516   24.73487928128921   12.17618123993623
H         6.87902448850336   24.20156270491550   12.00087524390397
C         3.57707982274646   26.09604779515922   12.61696801025631
H         2.65206818748569   26.62626248003757   12.78864762381701
C        13.83935908709644   20.43416564289077   17.94801023405516
H        14.89074664553757   20.67645388336313   17.97851016536636
C         6.21800731412312   20.48639053637716   17.34299159089482
H         5.24954856328641   20.01151528863971   17.30367292016236
O        10.42934312990709   27.32125018307762   13.95460967300902
C        12.69454604958214   25.53319383684126   17.61938339837274
H        11.97395105590370   25.66659254905460   18.41361451281500
C        11.12283876156796   27.66870516114919   14.89865381247991
C         5.60639251931774   26.71512154216908   17.83881441439522
H         5.28507190037475   27.48651882494431   18.52321104086410
C        11.91667331838359   28.93516492415296   14.87471066428791
H        12.06110942825989   29.27072079432688   13.85058843517563
H        12.87392221188146   28.80638192073973   15.37392597796843
H        11.35923616384369   29.70696498093831   15.40665626350848

