76
CSD_code = COLXOQ | q = 0 | S = 0 | Stoichiometry = C24H38CoN5O8 | MND = 6
Co        4.06597034811496    7.53117144608693    1.25577953860682
O         5.73351467032618    8.44960637491042    3.29571584311688
O         1.27621875428598    8.11338578308244    0.86805278988568
O         2.30798406702535    6.27878043866578   -0.52158744706066
O         6.90138843302216    7.00385308070516    1.57849113334489
O         6.31037274047922    8.62675303544201   -1.43728553749619
O         6.61041149500867    9.68846192813782    0.51992570951347
O         3.75844444871457   11.56159951664341   -1.33724072212477
O         3.90452435636747   10.38086290943023   -3.23746576980165
N         4.58720952246817    8.58035014542421    2.72517084652489
N         2.40968125399659    8.34650533563480    1.57820237215646
N         3.54117469671164    6.43400318339699   -0.17653032500320
N         5.75890487644272    6.77670953347522    0.87622808452280
N         3.75347867440751    5.89141995327513    2.58727138688940
C         5.80242175538612    6.03484891155783   -0.18126306398573
C         4.51381463724407    5.81812837304329   -0.78438907683283
C         2.41756897121863    9.27412834659003    2.47730605288437
C         3.66919154622970    9.38510240282808    3.17678149538065
C         3.87769490846919   10.30185399816573    4.33831182667133
C         1.25047216920485   10.15076775008872    2.77638426373213
C         4.30957815737745    4.95446616089000   -1.98720437512593
C         7.06025902453109    5.46354359981502   -0.73613080913144
C         4.41918542641789    9.08617820868330   -0.01356549996729
C         5.85683659898337    9.08733240690636   -0.41174927739857
C         8.01379460955632    9.74380558625493    0.28795647578057
C         8.37897276028475   10.87321756976623   -0.66566096629852
C         3.54860946056285    9.15293557739644   -1.26651985076198
C         3.74353810460022   10.50745299242284   -1.91977212245265
C         4.10759950533960   11.57599972824462   -3.99125459125533
C         2.78523002924997   12.24261103439092   -4.34358321748447
C         2.39925504420674    5.42364891567807    2.92945313877520
C         2.45702877518347    4.03666838141017    3.58117954819599
C         1.69847959157591    6.38593439226819    3.85790798392975
C         2.31986902605804    6.86089049909156    5.00642393572960
C         1.64342592932207    7.69707273302167    5.87677344989800
C         0.33453276862303    8.06275218701121    5.61473056813453
C        -0.29348813082980    7.58987090801328    4.47521655132511
C         0.38461292047253    6.75709898797020    3.60357356838113
H         1.54011512809753    7.33084951710706    0.23042656824205
H         6.59834291312989    7.63879244838228    2.34238484987068
H         4.24851222281836    5.10819195709089    2.15951125858296
H         4.25582232108674    6.10363645373385    3.45010480661028
H         4.91020248113697   10.21113727548493    4.66837566405206
H         3.21340369568655   10.04072591848799    5.16136550117510
H         3.68233610347866   11.33276876678892    4.04910947881883
H         0.36489305305434    9.76169443286039    2.28182953423659
H         1.45115399292437   11.15451032902200    2.40273371618493
H         1.07739927708239   10.20932299575775    3.84767934707321
H         3.26072255988450    5.00349160491434   -2.27214062630663
H         4.57185972606454    3.91716903912606   -1.78039048412732
H         4.92536455404130    5.31050273909112   -2.81076009049003
H         7.83371929872219    5.46014241720455    0.02827539785705
H         7.38523292497051    6.10541921835395   -1.55551935131833
H         6.90567839586884    4.45874640743055   -1.11961596317207
H         4.25236910215380    9.99269169444952    0.57764416504752
H         8.45552577347382    9.89800078819746    1.27435326495311
H         8.34400209425066    8.78215468084330   -0.11889208997302
H         9.45893361247352   10.93250983008753   -0.76920701020000
H         8.00260688967045   11.81976054844313   -0.28530399450571
H         7.93863877363602   10.68646646979102   -1.64208285777733
H         3.82409919589028    8.38686408931835   -1.98980254410081
H         2.48897233637410    9.06163819405297   -1.02277143232834
H         4.73226208204348   12.26036909882404   -3.40745945029727
H         4.64152701876622   11.25868600383144   -4.88941571457967
H         2.96929145431035   13.11353990321952   -4.96631860350810
H         2.27764017878652   12.55851080238736   -3.43540781589170
H         2.14607622378084   11.54713854023023   -4.88231682763102
H         1.83238556547419    5.35042447174736    1.99481500584061
H         2.90983565730561    3.31325220237110    2.90504381998992
H         1.45332858964042    3.69721687211148    3.82260935270601
H         3.03619312833710    4.06953587249001    4.50240023461553
H         3.33734009770272    6.58214365575275    5.24297937029515
H         2.13884268226049    8.05585843258541    6.76736721168262
H        -0.19396566918193    8.71189007661293    6.29740879923940
H        -1.31393081171416    7.87170412136771    4.26336651729963
H        -0.10659455011418    6.39806981462201    2.71188708063655

