73
CSD_code = COMBOW | q = 0 | S = 0 | Stoichiometry = C34H28N6NiS4 | MND = 4
Ni        2.69123280065002   10.03659978088803    4.80711979938335
S         1.96053122263067   11.97574859091250    3.92839907942529
S         0.35553728267557   13.94768305204331    5.38690204518069
N        -2.63866608864848    9.80871671011076    8.00977934230176
H        -3.47538826270836   10.35254459754131    8.14919135786601
N         1.25806226114391   10.22894858728047    6.04430761983801
N         0.66502007165713   11.44519974843220    6.18086255669512
C        -2.38431688695181    8.57163888714502    8.54506365000347
C        -3.16393530243689    7.76970750442046    9.36632850738453
H        -4.14289367204148    8.08841665159288    9.69229546200101
C        -2.63908067272426    6.55230239428395    9.74822221945379
H        -3.21677016437948    5.90062980872797   10.38645664167493
C        -1.37251147715042    6.14452678465024    9.32566486697403
H        -0.99902797684729    5.18370663649212    9.64687657083944
C        -0.59348069486145    6.94038131431534    8.51244320403328
H         0.38568453993730    6.61543533748786    8.19597687343712
C        -1.10127578120794    8.17184185791185    8.11048762378427
C        -0.59089533710190    9.24601194128741    7.29524684275306
C        -1.57911361898329   10.21220539805644    7.27305912325258
H        -1.58775765870162   11.14626413197964    6.75072805679807
C         0.66859419761215    9.22696740429753    6.63490892689219
H         1.19095886259696    8.27827157167162    6.63994939045736
C         0.96816001708359   12.31905624830339    5.28445468733818
C        -0.33918508668946   14.00404700333451    7.07675778658748
H         0.28502120118931   13.35570220424377    7.69121450494736
H        -0.19971190360545   15.04179624432040    7.38912861265544
C        -1.78448409377311   13.62319161535161    7.19626944859849
C        -2.65489577833544   13.66082512102481    6.11597835898412
H        -2.28544988491147   13.95818029628618    5.14581995038113
C        -3.98520038695516   13.31089957183190    6.27317301656803
H        -4.64975810184965   13.33918139879249    5.42265442454494
C        -4.46350101098633   12.93086540606825    7.51511739654342
H        -5.50311861616693   12.66337534901705    7.63760315786828
C        -3.60308582840363   12.90231140253188    8.60189161670053
H        -3.96987380537315   12.61766622870048    9.57813074762489
C        -2.27183040084706   13.24250264602140    8.44302373151604
H        -1.60202422386383   13.21141593198053    9.29000056617806
S         3.46736749288645    8.14645003984707    5.74852172760370
S         5.09012402509748    6.15071119457020    4.34254073937766
N         7.94766907139419   10.20648952498183    1.45715224654747
H         8.78936742505893    9.66970635413937    1.32036290866048
N         4.11348875604376    9.82641071176780    3.55387097286053
N         4.72640658831335    8.61458716129101    3.45983427047790
C         7.65848072641996   11.41279843993274    0.87150293702899
C         8.40226548888756   12.18676515082545   -0.00775104503950
H         9.37714629183659   11.86793269055653   -0.34559271624859
C         7.84744149451752   13.37690736246687   -0.43106780878516
H         8.39683942689524   14.00646865989507   -1.11484653664702
C         6.58659341834884   13.78527142145720    0.00767450211511
H         6.18913435173883   14.72450609412792   -0.34687149490364
C         5.84302160824147   13.01686344177098    0.87848806075872
H         4.86816653429417   13.34213030084422    1.20767907313071
C         6.38135075812769   11.81315121431903    1.32248232902536
C         5.91096839993796   10.77110196825404    2.20119072243620
C         6.91546591419780    9.82223406634710    2.24122620161263
H         6.95368378155673    8.91458679805986    2.80696640276688
C         4.67081829537814   10.80482559976876    2.89612246814874
H         4.13649086270045   11.74586706467492    2.86087591128994
C         4.44945607036630    7.77153952623790    4.39282921011613
C         5.73136616737549    6.03096183961444    2.63464146010997
H         5.07903535830240    6.64486208985589    2.01410381141415
H         5.59553804212524    4.97917643553068    2.37135213468974
C         7.16674169203461    6.42301805586921    2.45059700857902
C         8.07369180217676    6.43803078850548    3.50093810108852
H         7.74082340185984    6.17600752617064    4.49424403088576
C         9.39361780115752    6.79534920639399    3.28417975848246
H        10.08706732921990    6.80826977253030    4.11168850561569
C         9.82486823288484    7.13011416619971    2.01231159815814
H        10.85649604574466    7.40327543122586    1.84349020867722
C         8.92772951624722    7.10599591034444    0.95554493902444
H         9.25762952719153    7.35522007317176   -0.04327219281578
C         7.60679553759247    6.75852877572158    1.17364900631583
H         6.90828302317972    6.74851978339364    0.34965277999823

