67
CSD_code = COMBUB | q = 0 | S = 0 | Stoichiometry = C21H32CoN5O8 | MND = 6
Co       -0.06505041201055   -0.35854336536349    0.08450850386499
O         0.82566833266117   -1.67308306718738   -2.33331178574791
O        -2.58924251082824    0.73107752288292    0.60330468311389
O        -0.93577977859414    0.93408612746720    2.51571412036616
O         2.52774523027809   -1.29062660628792   -0.50564943547920
O         0.97269478913515   -3.15569865721830    2.18902309484127
O         0.85753356696747   -3.60382790391818   -0.00921803066205
O        -2.77309516558599   -4.08489901898672    1.37841829522049
O        -2.36012715421186   -3.73014622476701    3.55353729612024
N        -0.18791408200300   -1.08833107724488   -1.65160053424016
N        -1.86785819473307    0.07042914052962   -0.23820307529960
N         0.06334130707310    0.30333513879552    1.84050391153903
N         1.75361148795248   -0.79362748186985    0.40114589640717
N         0.52658528499930    1.45127730167213   -0.69193146764577
C        -1.35214842328032   -0.99524510866271   -2.20381144958401
C        -2.32692613961383   -0.31605021523472   -1.39194098068566
C         1.18855173356162    0.08745201695697    2.43714439527305
C         2.18170058555257   -0.52564258220087    1.59901199767401
C        -1.67574296992949   -1.52844664726026   -3.55868890675912
C        -3.73265082647284   -0.07348064867015   -1.83830021949019
C         1.45629120568094    0.43938858628023    3.86020415129711
C         3.56246763503060   -0.84620291000846    2.06824336797472
C        -0.73972216870237   -2.13182123251632    0.83435502406294
C         0.44284881945472   -2.99515979727248    1.11014425198549
C         2.04020532058065   -4.39281819799643    0.07138477806048
C         2.09410715383261   -5.29551543144214   -1.14714225589138
C        -1.63561671271092   -2.06296337499170    2.06783362047908
C        -2.31999983813471   -3.40182330109120    2.26065522756068
C        -2.98122568166475   -4.96898722160435    3.89618471961048
C        -4.49027715916992   -4.81793060525802    4.02627081899187
C         1.54557782262756    1.53905604521635   -1.54562234903765
C         1.96675972242790    2.73948401740105   -2.09108667375191
C         1.30722994857685    3.90592321274384   -1.74016707513745
C         0.24750927226644    3.81516447871011   -0.85246679166223
C        -0.10806274325181    2.57353159013613   -0.35514038049587
H        -1.73287060732336    0.91571665689979    1.85567632518948
H         1.62031134316981   -1.66250614221718   -1.66341427155825
H        -0.81111023230698   -2.04945388464497   -3.96066590432813
H        -1.95253751455349   -0.71759726819695   -4.23096014698536
H        -2.51552064145833   -2.21754645691757   -3.49384333113044
H        -4.24164406631652    0.51424159990393   -1.07752061360584
H        -4.25890807516854   -1.01832433321936   -1.96584648819825
H        -3.75464145663554    0.46425866977683   -2.78477632879974
H         0.56136103702530    0.86204188884608    4.30879358297423
H         2.27033756942999    1.15889843000630    3.93189238398820
H         1.74559811284670   -0.45977804905500    4.40097218940649
H         4.17053582062208   -1.12107714777115    1.20882790798546
H         3.52177840573204   -1.69187991714605    2.75429228312020
H         4.01438405802327    0.00080916943646    2.57999278120689
H        -1.30491931075923   -2.60433230747481    0.02426812501527
H         2.90216259993706   -3.71536385840659    0.09356988478023
H         2.02273404408336   -4.96852956049809    1.00383119158754
H         3.00181325194130   -5.89182905237385   -1.12322931212710
H         2.08469379492579   -4.69089076177785   -2.04976330901158
H         1.23174567995130   -5.95680493499146   -1.16182051119785
H        -1.06607916152198   -1.84326011969426    2.97000621740602
H        -2.42546583046605   -1.31857702553654    1.94619947091166
H        -2.74042540126859   -5.70973134178336    3.12647818080295
H        -2.53038830725746   -5.26012836062934    4.84713794615992
H        -4.92673733264023   -5.76071767157348    4.34400146922879
H        -4.91721196612592   -4.53688775479149    3.06670559731493
H        -4.72870612870590   -4.04955054706736    4.75782509793272
H         2.05851062032339    0.62155473454981   -1.80071337315369
H         2.79832627683369    2.75210444983676   -2.77744004010485
H         1.61072927395886    4.85896767294013   -2.14645625020473
H        -0.30083496857632    4.69146107346840   -0.54552677255219
H        -0.93891014548247    2.48647764834705    0.33139927506774

