69
CSD_code = COMGIU | q = 0 | S = 0 | Stoichiometry = C19H36CoN5O8 | MND = 6
Co       12.15524105629987   12.64853786430624    3.09645651459844
O        10.84402580097684   11.64871495646598    5.36028291705686
O        13.25537117678345   15.29910817526380    2.74426410380311
O        13.21401569574246   13.75991727345187    0.75167144564626
O        10.99061936237708   10.03581457863627    3.43040012947240
O        15.11330438533423   13.35936998389064    5.15264465690669
O        15.54413047927934   13.39138835304182    2.94847149535027
O        15.79549309428669    9.69289066496746    3.93320656413363
O        15.53107545524153    9.85365322065668    6.15394496171672
N        11.54392343798259   12.62114142771183    4.87750607501338
N        12.69329994935087   14.38948051359776    3.58075463607902
N        12.75681355948610   12.69863200712014    1.31281267991362
N        11.64434102461697   10.90809189989923    2.61867323810976
N        10.21328641562458   13.38220850303168    2.53089496077343
C        11.86397239936302   13.66458646452410    5.58458553967886
C        12.53912098864873   14.68671272470780    4.82874459043275
C        12.61585232978295   11.57962922097176    0.66071419470629
C        11.98141936561222   10.54082141564943    1.42670071843921
C        11.54422663525687   13.80086200227412    7.03758911529221
C        13.01488477276655   15.95670690826801    5.44358889990192
C        13.03421585545809   11.40408346140717   -0.76391190202175
C        11.72163300188687    9.18141054852906    0.87109329973507
C        13.93789331312367   11.85892519839495    3.67833048717291
C        14.90189805197423   12.94362910489150    4.03310297052968
C        16.52167226181969   14.41449513204129    3.12000708102694
C        16.43081153694015   15.40008906097975    1.96745607208746
C        13.87370198232470   10.85907403009997    4.82993798838373
C        15.17092172351113   10.07564423134421    4.88904511817974
C        16.72886215556161    9.10807355172414    6.37339461757335
C        16.47139396493913    7.60928877687550    6.30630560390627
C         9.78113491052724   13.40188868156503    1.12804931705993
C         8.36799487605695   13.96248887119651    0.96090779653763
C         7.94167400380315   13.95486091978826   -0.50145412527057
H        13.33675017337528   14.78544159806719    1.83894004077770
H        10.84633064785979   10.57708180479352    4.31487517103691
H         9.54822764004012   12.81855485690793    3.06281000831164
H        10.13814339801377   14.33250721265269    2.89482053713391
H        11.07053630376800   12.88146665621881    7.37498749746344
H        10.86818875145421   14.63604632057622    7.21818511237072
H        12.45879501803011   13.96560320893160    7.60385871989079
H        13.24861057316124   16.68005734995609    4.66641840280175
H        13.92351069358716   15.73894693299435    6.00512001585221
H        12.27512683673863   16.36669092478470    6.12641287046551
H        13.54740121952941   12.30789824389612   -1.08457369706127
H        12.17182704651704   11.23949858200181   -1.40964931787444
H        13.70641554451188   10.55410558569180   -0.86257055485658
H        11.09675442989063    8.61757357734345    1.55871490828878
H        12.66681941625166    8.65596600059526    0.74170629530733
H        11.23469411912614    9.24786220036294   -0.09953941834216
H        14.33803438368642   11.35047300230871    2.79468897883124
H        16.34995616499879   14.90768932194404    4.08289371810456
H        17.50606400820773   13.93194263343198    3.14300708988755
H        17.24042869070379   16.12113653275688    2.03968947247234
H        15.47891680999485   15.92205770571943    1.99668167069741
H        16.50516332377488   14.86890402576897    1.02298355432051
H        13.73701414225200   11.35985298897501    5.78758418107464
H        13.07530822994848   10.12786513703935    4.69298617927866
H        17.46914236889481    9.39881202062856    5.62060613907769
H        17.07084019604361    9.40585063863184    7.36668543316327
H        17.38547140128148    7.07040332087150    6.53909757526256
H        16.14497150935588    7.33517712450006    5.30611742779808
H        15.69999086652894    7.32854171456147    7.01932725584735
H        10.48767826947894   14.00895028756396    0.55775887333154
H         9.81833946318623   12.38048880904334    0.74216549497839
H         8.33575241835998   14.98636782340862    1.34282066010910
H         7.66701612792455   13.36261469671168    1.54784944960142
H         6.94158119696889   14.36639446180011   -0.60916894771455
H         7.93955490701397   12.94009386650420   -0.89228723859837
H         8.62621868677108   14.55136310495124   -1.09947532099778

