81
CSD_code = COMGOC | q = 0 | S = 0 | Stoichiometry = C32H44NiP4 | MND = 4
Ni        4.58584034919769    6.72939963394864    4.49602397926100
P         5.00388970970910    6.52721888715054    2.31438786192791
P         3.60760098062946    4.85732089131946    5.19603472300619
P         6.59394458383361    6.91281912208040    5.46522521591579
P         3.29986954820027    8.49056796114313    4.88772607908132
C         6.49506177476719    7.43800844114402    1.77824833342795
C         6.44354465189232    8.82873035211533    1.83274404098860
H         5.52982381857896    9.30990912113016    2.14873894115843
C         7.54725851839328    9.59389274904039    1.51068436296384
H         7.48505286184934   10.67199808410061    1.55805759557599
C         8.73249769396944    8.97801346021691    1.14024982061127
H         9.60046693963865    9.57176988856300    0.89197476280922
C         8.80010884530772    7.59623404921019    1.09824934510249
H         9.72407353454356    7.11020901592249    0.81640527585657
C         7.69140357336339    6.83012747596656    1.41645897523654
H         7.76723316275491    5.75326265762251    1.37852245236229
C         3.83828078534855    7.14057070653108    1.02247046755094
H         2.92763758293930    6.54595095000066    1.07207624176925
H         4.28121676306678    7.04972642184635    0.03152805010642
H         3.59174508341536    8.18169257932094    1.21658191402475
C         5.31358574207435    4.86097664223930    1.59572628808555
H         4.37776644147806    4.30528276048158    1.62787060657944
H         6.04327634722887    4.32602275138986    2.20052506097139
H         5.65828741488887    4.93289974794799    0.56502806539716
C         2.71463363886541    3.99603728136968    3.85291050860064
C         2.87408853180709    2.66480625042742    3.49380644614728
H         3.56099947383610    2.02857382304788    4.03088091016854
C         2.15807030097756    2.13976709725909    2.43003705380515
H         2.29189977154425    1.10279036031418    2.15472512775793
C         1.27582677866289    2.93278965427166    1.71749998129685
H         0.72061305116768    2.51704695514894    0.88902325481072
C         1.11511154485241    4.26536682987256    2.06565045978507
H         0.43184191354886    4.89043558664640    1.50700267584525
C         1.83639064768226    4.78955622325926    3.11938651370760
H         1.75020026576537    5.83490518259140    3.38624399745685
C         2.21290643369515    4.86480329567183    6.41231151969519
H         1.45477358424328    5.57481576221097    6.08948936660283
H         2.58706914432845    5.16908499210075    7.38791474334596
H         1.76917659391752    3.87283226476952    6.48637195247221
C         4.58525358536933    3.49284227078157    5.95145308116162
H         5.10799983421841    3.89582948744584    6.81866628462721
H         5.32778811699083    3.14001886964392    5.23816611505998
H         3.94736478554833    2.66775524479777    6.26457556884603
C         6.64830152618607    6.71492078416105    7.28785103213284
C         5.42984904609944    6.55736306630930    7.93564409528135
H         4.53119829375920    6.56447127596699    7.32849738544841
C         5.36731386371513    6.39741658587800    9.30749690605765
H         4.41247610068896    6.27468539600198    9.80001758197233
C         6.53529515063246    6.39663025664053   10.05104942320634
H         6.49699769464721    6.27157500800388   11.12369702006089
C         7.75614092744603    6.55917870681821    9.41590163389266
H         8.66802827088362    6.56158626788986    9.99667930932345
C         7.81462772609013    6.71869573942624    8.04321986729534
H         8.77575158943816    6.84737794725778    7.56623113360842
C         7.78070391694680    5.59341083078229    4.96720423182890
H         7.30490057229767    4.62224779783523    5.08285376810747
H         8.69152568122439    5.62631915319218    5.56243781632926
H         8.02423739210406    5.74456422559477    3.91671018045475
C         7.72579907355522    8.35691810104495    5.27453492570745
H         7.35499293102205    9.18942109712299    5.86832845061933
H         7.73628227707636    8.65477129680318    4.22742949673953
H         8.73845822697914    8.11298296690742    5.59001928102769
C         3.83434787036850   10.04967602244058    4.09919158689911
C         3.25914340711547   10.53695975717951    2.93007673620047
H         2.41313526511790   10.03068832810648    2.48869225462246
C         3.76312155179071   11.67029534691933    2.31567700090853
H         3.30389318166157   12.03749260321452    1.40824788062729
C         4.85411734662936   12.33035638889401    2.85436808188588
H         5.24733771777276   13.21306534473629    2.37095692011834
C         5.44124064744708   11.84784027061284    4.01312101428518
H         6.29740331255771   12.35424832698321    4.43652617919160
C         4.93727631437747   10.71650757723121    4.62433396374769
H         5.40526081541445   10.33155863834553    5.51825144602003
C         3.12230680508435    9.09470121789765    6.62410847880782
H         2.53887588437252    8.36333248699383    7.18159886865761
H         2.61822666941382   10.05986179406227    6.64943747667457
H         4.09981534259512    9.17639832409052    7.09373945969225
C         1.50488012460964    8.51692637745624    4.45495208041392
H         0.99092762497686    7.79563969558167    5.08873492494375
H         1.35894178854635    8.22216997803389    3.41787597433495
H         1.08139336524702    9.50688323551612    4.61945211192478

