47
CSD_code = COMVEF | q = 0 | S = 0 | Stoichiometry = C10H24N6NiO6 | MND = 6
Ni        2.00156986145977    6.43479711486346    4.07229572404405
N         0.65021801904227    6.79457291225688    2.67780739250775
N         2.07826332015723    4.58570529758949    3.38372773168994
C         0.69474207724141    5.68259328054786    1.72716620423345
C         0.92063131080521    4.39436061911633    2.50894849163063
C         2.26599471011653    3.46494372679615    4.30253260668718
C         3.53006053013495    3.63485912897374    5.13875429102821
C         0.61248516388572    8.09192145839931    2.00607207707629
N         4.57878241268276    6.71914193017165    2.28335941436391
O         3.54284050759899    7.39328957080084    2.44316587544089
O         4.69236290977269    5.67998556964832    2.95898254118263
O         5.43280488228551    7.06652588369360    1.50264676724606
H        -0.19467474738201    6.72993580822264    3.26187863184448
H         2.93837341027805    4.66644664684427    2.82399173707610
H         1.53604990600987    5.85680438178515    1.04885452028086
H        -0.22549093578784    5.62363406459036    1.12994776910741
H         1.06306694067520    3.54258900160167    1.82986949911311
H         0.05277830880360    4.18888792684873    3.14367660663470
H         1.39575995914632    3.42054237840755    4.96211817444355
H         2.33124413533571    2.52857628835441    3.73115212397113
H         4.38019337979550    3.82684494447002    4.48123360488700
H         3.71597901883023    2.71059150397114    5.68576738723070
H        -0.23265964408760    8.11770245908381    1.30423154978589
H         1.54422276252649    8.20869594294459    1.44697987452675
N         3.35238715642205    6.07501718757163    5.46723658338373
N         1.92533970894496    8.28394427322689    4.76060671849594
O         0.45922597976426    5.47520083180728    5.69975006718733
C         3.38972458428775    4.77763621150137    6.13893059717878
C         0.47306390566588    9.23487861286366    3.00616149393719
C         3.30813792183222    7.18712856772548    6.41772807558255
H         4.19742268138502    6.13927577012179    4.88323478353864
C         3.08276566375501    8.47529006475397    5.63564830869712
C         1.73768042631663    9.40455834798800    3.84160513495109
H         1.06502759203429    8.20338328757241    5.32016274616343
N        -0.57371254477455    6.15278555941478    5.86449797127520
H         4.23438811082795    4.75188518923502    6.84134416123427
H         2.45762233509646    4.66063474879195    6.69737999068459
H        -0.37669985766611    9.04325998278659    3.66426584325828
H         0.28705842458690   10.15909862367080    2.45909691859668
H         2.46675865094944    7.01338974053144    7.09608259870574
H         4.22835814614593    7.24586663218214    7.01498373184672
H         2.94023661404701    9.32719988539711    6.31453253682470
H         3.95090413110928    8.68055007461194    5.00122869290535
H         2.60757816814235    9.44852363102747    3.18153589608819
H         1.67305473580812   10.34107667333693    4.41280170440124
O        -0.68698110207582    7.19243431537021    5.18957499603001
O        -1.42503963193170    5.80833394852919    6.64944985300055

