75
CSD_code = COMYIN | q = 0 | S = 0 | Stoichiometry = C25H40BIrN6O2 | MND = 6
Ir        2.84281154079176    3.23076568867201    2.73494133972495
B         3.11185435265081    2.59684491173192    5.88438065405946
H         3.17416329877982    2.40315935675778    7.04493220490640
N         3.93003492300775    4.28730806992765    4.21758463643519
N         3.84916942690296    3.88527185337950    5.50013681154060
C         4.78614885086802    5.30192930216267    4.15913425017394
C         5.25470469664630    5.57687367870647    5.44780949568940
H         5.95180379425651    6.33876721848970    5.73336386569045
C         4.64116858337017    4.65419610311518    6.27165803437941
C         5.18721102779655    5.97413584386180    2.89663659445623
H         6.22657623752214    6.28910401019496    2.96446235968812
H         4.57583521782116    6.85891626799090    2.71843911079786
H         5.06673176825840    5.27552321945573    2.07159150517929
C         4.78607434985423    4.49186552184688    7.74274620234169
H         3.81585038761568    4.53575223831201    8.23426726049872
H         5.41572299468766    5.28729104530629    8.13292471996242
H         5.24449835603833    3.53375774449695    7.98321191796465
N         3.87042839132811    1.50756485075324    3.76680854200670
N         3.77126360978750    1.44739650942653    5.10448255220413
C         4.63168784610940    0.49910685727263    3.36197498341619
C         5.02045806800795   -0.25340402150923    4.47505071244559
H         5.63429329400163   -1.13157392297529    4.48217870175216
C         4.45909714225938    0.38477983265355    5.56554167778411
C         4.99411878759618    0.29940676043716    1.93582469156893
H         5.07892919910472    1.27423428354580    1.46233266505074
H         4.23235510235330   -0.27784137203379    1.41201404353415
H         5.94008136879424   -0.23167907140573    1.86065954634340
C         4.55480041432798    0.01645670548010    7.00285758461301
H         3.56442616121597   -0.10523427099426    7.43833370833369
H         5.07772764912652    0.78884347808939    7.56465505287825
H         5.10151253160515   -0.91777884153744    7.10178419305765
N         1.30696667035814    2.98821861043721    4.16569771465329
N         1.64637225762201    2.71443672849238    5.43752078849264
C        -0.02519581974376    3.01157822613230    4.09674516955073
C        -0.55107498207032    2.74475856647088    5.36191221516139
H        -1.58609011318045    2.69464272355982    5.63289886203604
C         0.54144329471913    2.56321015702654    6.18815957463427
C        -0.81359088404796    3.28044488287101    2.86456888513432
H        -1.10999271591716    4.32824830346581    2.82796408177304
H        -1.71901215750470    2.67597672967426    2.86625069150694
H        -0.22684105246133    3.06229249474864    1.97834083958067
C         0.54834821883402    2.25320521491979    7.64166413031020
H         1.06359602645987    3.03270198151314    8.19951359885268
H         1.05539155562113    1.30950773443171    7.83368985037145
H        -0.47524695860182    2.18232524976772    8.00004050458880
O         1.41771792600222    1.19575096673716    0.99011322182833
O         4.29371229704394    3.42355015396622    1.26467673357059
C         2.00232109882262    2.33508425444737    1.24109809072601
C         2.23832228254888    3.17886922728858    0.02412734081929
H         1.83911795872110    2.73474754968476   -0.89351346685162
C         1.59616379921828    4.53338128258429    0.36539180794913
H         0.51152290472333    4.42387909063927    0.28056839914154
H         1.90307518919128    5.29395140856112   -0.35253017895737
C         1.99784934135265    4.90071301342173    1.80157785188892
H         1.14142391590207    5.30466805512831    2.34555858799361
H         2.75603560364825    5.68034947212955    1.77417433084813
C         3.80133352227220    3.26103636783230   -0.01136454893789
H         4.14000042763208    2.28584978683444   -0.43176086745979
C         4.34638422643194    4.35948554919865   -0.94123547277010
H         5.43476566602693    4.30541010608393   -0.86900633612297
H         4.04747279631500    5.33525137756164   -0.55984601018550
C         3.92066980260921    4.19580796077298   -2.39338665031717
H         4.42280934804537    4.93147770371572   -3.01826710484696
H         2.84738801803547    4.32947085699743   -2.50421592309658
H         4.18178364015230    3.20358569060914   -2.75615007714390
C         1.14657005945697    0.28749223316796    2.05854771336556
H         0.13436945121969    0.48887823315860    2.42672874285530
H         1.85693456030428    0.46043926112694    2.87165843521733
C         1.24644329493429   -1.14352275394681    1.54237357163483
H         2.21507846864072   -1.27821246600523    1.05825931494151
H         0.47347310066839   -1.31050985005425    0.79025299651110
C         1.09780220212601   -2.14148377954923    2.68283956794097
H         1.16379293162669   -3.15868759694773    2.30627748041238
H         0.13674910745955   -2.01807533330439    3.17669420790435
H         1.88420434628959   -1.99422527695883    3.41957171601593

