41
CSD_code = CONFUG | q = 0 | S = 0 | Stoichiometry = C18H16FeO6 | MND = 7
O         5.34352669109307    1.28796034687647    3.15587113312298
C         4.12953598224128    1.08943644857210    2.58550107820410
C         3.01001619605325    1.75644850965609    3.31206441908242
C         3.07036358745362    1.62110022298368    4.75465004742520
C         4.34948428624796    1.80742698290251    5.31045982724770
C         5.34534336940312    2.10160098733060    4.30427103950649
O         4.02282030683304    0.41329253918337    1.59985563141989
C         1.69915834289541    1.59338269090632    2.61627674757021
C         1.04368487712557    2.67941536881046    2.05287812786712
C        -0.16100554224279    2.50850283895170    1.39434400037823
C        -0.71808478126197    1.24618470095472    1.28395329777837
C        -0.06318694372180    0.15565391368835    1.83078743387528
C         1.13886163914863    0.32546637511503    2.49274968837905
C         1.87834028057464    1.24238507787844    5.57998718602652
C         4.68418060030379    1.67804982737866    6.76663364618694
O         6.60694816250647    2.36194879852229    4.73229524030048
C         7.48722190073407    2.92752371344083    3.76361952242381
C         8.78550678396616    3.28569880158673    4.46245838060311
Fe        3.81714810317780    3.59815340031000    4.16105799578717
C         2.32882043532828    4.53484504341149    4.42689682907954
O         1.42781137804130    5.21902218748168    4.60121340111105
C         4.62859698332025    4.80282835352884    5.14753475807316
O         5.16594505461393    5.60796119814353    5.75937007921746
C         4.40479971903080    4.10967286367938    2.54018783514757
O         4.74063071463139    4.46457984743097    1.50758845183819
H         1.49122148808103    3.66235345713519    2.12864174520844
H        -0.66139995439021    3.36228566521067    0.96219797195220
H        -1.65638291707805    1.11151344611800    0.76682014533377
H        -0.48830882704285   -0.83287153014581    1.73912945244845
H         1.65327014842530   -0.52741022618576    2.90945413159417
H         1.88263705158156    1.75679087465593    6.53803869522970
H         1.90500697217033    0.16875592404332    5.77229393282255
H         0.95529111236927    1.47261323511823    5.05429079748947
H         3.98336238764432    2.22683095997904    7.39237567750918
H         5.68947588686527    2.04893563985312    6.94321426188128
H         4.64580628201811    0.62532841395090    7.04942391155277
H         7.65839698621966    2.20786448389809    2.95611148160939
H         7.00700182729304    3.82469779792966    3.34208309019634
H         9.47734629879120    3.72142194454597    3.74781442308270
H         9.23290732670505    2.39511189007651    4.89463343432394
H         8.59499980285010    4.00153698509295    5.25747105011360

