48
CSD_code = CONHUL | q = 0 | S = 0 | Stoichiometry = C21H17N7PtS2 | MND = 4
Pt        1.19639237499121    3.97090605469431    5.59763869412794
S         3.07254723059533    2.67766109948986    4.90777213379471
N         0.08277342669706    5.57609206641482    5.98292587714866
C         0.14193228347226    6.47702226790855    4.96784244836193
N         1.68284542781360    4.99960737273790    4.02550043680465
S         0.46352384956723    0.98851950137508    5.77018276742052
C        -0.53072656835893    7.69495130099301    5.07313845856253
H        -0.50143608488786    8.39333763394503    4.25291310397712
N         2.56260241118313    4.62870691206723    3.11396917905927
C        -1.20479871755804    7.98967113548646    6.24793792199462
H        -1.72913652857002    8.92759923596386    6.34997901053288
N         4.13760446687306    3.00183284414633    2.56445568801381
H         4.58022193353412    2.16353470445890    2.92233659622048
C        -1.17952776980319    7.09144180796673    7.29838075193465
H        -1.67039403935213    7.31420106816198    8.23211255299360
C        -0.51370894561596    5.86514942597783    7.14797940819492
N        -0.08382175420071    3.69386410969033    8.26659529575046
C         0.98990072338106    6.10404796984969    3.87841495399768
H         1.11780852262847    6.73122267383065    3.00623411340072
N         0.47845245607844    3.08927969926650    7.23148687454503
C         3.23609789954755    3.53418939366743    3.41340320419345
N         0.29608278355294    1.14501488481798    8.47485650035689
H         0.19034754895999    1.83741837190464    9.21440917206332
C         4.53301816902433    3.38709722680896    1.28906608545292
C         4.02408171884452    4.50700877361875    0.63648079034852
H         3.28401514352961    5.11071033764321    1.13298452750192
C         4.47224484092849    4.82553960468097   -0.63193292400526
H         4.07187771787383    5.69553988385419   -1.13108224390229
C         5.42423811112347    4.04400422674331   -1.26486248332262
H         5.76851458418833    4.30018952385024   -2.25521053416218
C         5.93191405303456    2.92911427434777   -0.61760437632753
H         6.67396778191251    2.31196625855258   -1.10192308947134
C         5.49205455339030    2.60037605430701    0.64904747240175
H         5.88870382311318    1.72954368592215    1.15197759280079
C        -0.50651418442589    4.91341513384942    8.23525908968374
H        -0.96440628695183    5.24198702486900    9.15841207973162
C         0.45645406483688    1.72083698967795    7.26856328799999
C         0.18885985298384   -0.17984994922249    8.88154661229321
C         0.38116208261141   -1.26828642811328    8.03541900096311
H         0.61763433836912   -1.10846442203924    6.99760599584249
C         0.26511949934776   -2.55293917653659    8.53416939941123
H         0.41497947666513   -3.39013727804955    7.86910574776821
C        -0.03578848873018   -2.77377165900382    9.86706426940011
H        -0.12321385476281   -3.78033075631579   10.24705094740255
C        -0.22157562757700   -1.69178187169938   10.71263050616079
H        -0.45417373294056   -1.85107551208643   11.75523960974651
C        -0.10981223044392   -0.40485315870137   10.22683293514658
H        -0.25463833647727    0.43888967822471   10.88769455767473

