51
CSD_code = CONMAT | q = 1 | S = 0 | Stoichiometry = C12H27MoN4O3P4(1+) | MND = 6
Mo        3.05055466287317    6.74913488114560   12.54902312025879
P         5.24790799730930    6.56399798420708   11.69731556055766
P         4.08285206966949    8.90280276679535   12.24209622072837
P         2.47961597043432    7.74097108860194   10.47217118011226
P         4.24861842058533    5.86270063243120    9.11439690388926
O         0.38278401050058    7.75788811539772   13.70737654388797
O         1.87982108581357    3.90371875619099   12.54958663457397
O         4.10434244962377    6.11336773791876   15.36925704771867
N         5.57397110878850    8.23594396290905   11.71648269307596
N         3.20398415357203    9.24628366117343   10.79232668080724
N         3.28530125202235    7.20382207366119    8.99376697479423
N         5.61982586665275    6.14841595894106   10.02618534556944
C         1.35800934733960    7.34836803463672   13.29606066552346
C         2.31616082742903    4.95683094230018   12.51649462315172
C         3.69223349127386    6.32301862354754   14.33295495593886
C         6.65118240911355    5.82374647312276   12.58304126413316
C         4.52082516942548   10.53588251271150   12.89850628549129
C         0.84199867687220    8.11859805707621    9.77932626181826
C         3.23168468108169    4.49059071449773    9.70146024502454
C         4.76749788854439    5.43149746079845    7.43712956484201
C         6.75417874013760    8.90097881954918   11.18248827799377
C         2.96728277169926   10.54959007561371   10.17924147521011
C         3.64106922690773    8.20103835061938    7.97930925022138
C         6.94246821824865    5.66656738405534    9.61442959364345
H         6.59426933482302    4.73801550899966   12.50451592746847
H         7.62831192813278    6.17301581703921   12.25387899066703
H         6.50194186520335    6.09803070598764   13.62910487248918
H         5.22889487713978   10.38272446766177   13.71334945512791
H         4.95122365225604   11.18999410901091   12.13973287473190
H         3.61662336042508   10.98736801242653   13.30753685698787
H         0.29866854133027    8.69760322712801   10.52782611359089
H         0.86439819346844    8.65014055765877    8.82849681113144
H         0.32543654573970    7.16793917111487    9.64166164025056
H         3.73239134168016    3.96808065264235   10.51653914202600
H         2.27123780068080    4.86981462902767   10.04965656481032
H         3.07023937136321    3.80031297669307    8.87380508845522
H         5.27129268632572    4.46582298213116    7.45992631485188
H         3.86174187547575    5.33716354599777    6.83797659559350
H         5.42173964032103    6.17881033252613    6.99188650534671
H         7.66211534542658    8.49658486896147   11.63385418800012
H         6.82097019218459    8.79237793939723   10.09497308608563
H         6.70855097122270    9.96318663986267   11.41709657574886
H         3.79798534271585   10.85788842753968    9.53761882544082
H         2.05339193870994   10.52359797944721    9.58630335963720
H         2.82889868791239   11.30519934381899   10.95323341836817
H         4.65645878627929    8.58400612776605    8.11261870390152
H         3.54398740898168    7.77715326413235    6.97974189670168
H         2.94820944646956    9.03530599375431    8.05527927836285
H         7.14028350685432    4.65206671856081    9.96451324972955
H         7.03007147813651    5.68648330307665    8.53049159394125
H         7.70339538481632    6.33165762972243   10.01855470159079

