36
CSD_code = CONRUT | q = 1 | S = 0 | Stoichiometry = C9H19CoN3O4(1+) | MND = 6
O         0.78946714464297    0.10251392796475    8.99686921056847
N         3.68054642503527   -0.07632857504172    9.55376949768353
H         3.27834054031237   -0.19045919021241   10.48560941362017
N         2.33042085676074   -1.77257809473062    7.95886527844573
H         2.51800712797111   -2.11019337548375    7.01350608176742
N         2.46609718842328    2.07878333076025    8.49389613762807
H         2.68350361171357    2.64785158948550    7.67424721452575
O         3.75962272107065    0.30664014081731    6.77183510912710
O         1.69566663095876    0.43116468365121    6.39945368216141
C         4.39433833394826   -1.31355472330262    9.20578408820228
H         5.05483471748378   -1.65503431669423   10.00927548260224
H         4.98830994124293   -1.11363864050186    8.31160414378688
C         3.49451105600651    2.32462005940218    9.53629016231072
H         2.99819432157700    2.39592785752018   10.50772398908253
H         4.02274965347961    3.26289590699761    9.35508828650679
C         4.48241125835925    1.15586998798806    9.54679016965554
H         5.06854451344921    1.16505281454380    8.62555023794325
H         5.15832065825140    1.21948468594521   10.40559855035030
C         0.52131360396394    1.25654018297893    9.77386005621840
H         1.00290208907991    1.18904993815021   10.75974030907471
H        -0.55699272310236    1.38471637679289    9.91726883588665
C         3.32727048271535   -2.36326406611355    8.88723495949195
H         3.79025980135351   -3.25248061744790    8.45456883522225
H         2.81626311962312   -2.65944002888375    9.80715577933887
C         0.43280350332186   -1.19839520245414    9.43027495469014
H        -0.65342098391978   -1.28511724676433    9.54137666210477
H         0.90621532134846   -1.43707369277582   10.39325144872188
C         1.08911626754282    2.40228643082260    8.92353573277887
H         0.47634519917037    2.48006535146318    8.02274389979180
H         1.05299389527899    3.34921947955505    9.47026077429746
C         0.92961365610886   -2.10470547731307    8.29447445305877
H         0.82202511577517   -3.16014152111946    8.56166628934660
H         0.32330515625811   -1.89048073872242    7.41160075703701
C         2.87190588673004    0.47421505265959    5.78982617200795
O         3.09661478622253    0.62700307919288    4.63150415434196
Co        2.46577912184247    0.17978463087026    8.01559919062175

