61
CSD_code = CONTEG | q = 0 | S = 0 | Stoichiometry = C26H30ClN3Ru | MND = 9
Ru        1.77700484497741    1.39571551641956    6.45539074797708
Cl        2.29043398556382    2.58116352141143    4.45748550219334
N        -1.20572281130265    2.32947186814024    6.48611211789718
N        -1.98390494530988    3.33620456754830    6.82453525588105
N        -1.17963180478179    4.27593256689659    7.23753414610809
C         2.01407169501382    0.02208364392138    8.18910251001537
C         2.91772268904322   -0.38385141939998    7.16858200368213
H         2.93904779249862   -1.42143619214271    6.85328013771460
C         3.83887800907813    0.51641385535297    6.61584029222932
H         4.55117876382251    0.17156209170304    5.87198892456087
C         3.93015723794664    1.85075933701939    7.09783778610028
C         4.96918139961273    2.77339137888177    6.53776176135066
H         5.93190981725602    2.26802047873697    6.46012893257235
H         5.07732262042871    3.66130536423413    7.15836347851336
H         4.67001354055896    3.08862132675145    5.53468146016544
C         3.08093764592443    2.25494666445451    8.13003104832245
H         3.20663191759142    3.22974534080766    8.58457545998746
C         2.08886841102230    1.37176934681723    8.62056466978353
H         1.47098508824379    1.68878175881664    9.45960196026127
C         1.14401100097130   -0.96572570664133    8.93293776294501
H         0.35270633242758   -0.40031633930089    9.44223671620321
C         1.99361995672376   -1.67202973110812    9.99689017910219
H         2.42959883509475   -0.94940825159790   10.68469852668059
H         2.80199534933364   -2.22938643144007    9.52720823654260
H         1.38179744839004   -2.36714523849713   10.56750473716356
C         0.47859214269067   -1.98830063423182    8.01203425651804
H         0.02082261555384   -1.48459409269531    7.16334618254215
H        -0.28881282404819   -2.53585218634856    8.55451122477209
H         1.20304909716009   -2.70667991925098    7.63661357856409
C         0.12525427792521    2.57319674751908    6.66032839583581
C         0.11408504329902    3.89030565338454    7.16304306721584
C         1.20266165074492    4.78646031841195    7.55146461669556
C         1.24594698952288    5.32410610580725    8.83697413298815
H         0.48659023618056    5.05843596724018    9.55983812287759
C         2.27897544049238    6.16734563686478    9.20303212009128
H         2.31297295202487    6.57101798738485   10.20476233334474
C         3.26912952609377    6.48960626154554    8.28883038203000
H         4.07513961667994    7.14813195277191    8.57828233403462
C         3.22458189630800    5.96257592351672    7.00821243208947
H         3.99445523063088    6.21203748989429    6.29342346799716
C         2.19852084491201    5.11321924707306    6.63411957966138
H         2.16665558106402    4.68629716483908    5.64168261703727
C        -1.71398419019755    5.54241525998016    7.64822094819169
H        -2.64027945416660    5.71302524004021    7.10255562229634
H        -0.99489915282180    6.32969858021654    7.42780664439915
H        -1.93062206415704    5.54132194455743    8.71800590070519
C        -1.84654924034001    1.18302866724956    5.89189223955786
H        -2.72904467232911    0.93910578776582    6.48750315332730
H        -1.12371170605892    0.36327060801179    5.91663248237951
C        -2.24001390703909    1.48918125887939    4.46665643715314
C        -1.28282564193470    1.96528011694125    3.57907685569709
H        -0.26181086402639    2.09750988617811    3.91272164452536
C        -1.63404222139818    2.25718313505740    2.27357162890092
H        -0.88304499148661    2.62553092358178    1.59169037091702
C        -2.93882842685042    2.07470692770711    1.84516072397656
H        -3.21176994566444    2.30142921649190    0.82487050526672
C        -3.89374309570013    1.59981462703123    2.72735517158295
H        -4.91251859827015    1.45523050933097    2.39796996369697
C        -3.54672756374678    1.31230649296162    4.03649599444459
H        -4.29511099912048    0.94472242890860    4.72425668144856
H         0.95269159791662    0.51833944752955    5.53618383329805

