53
CSD_code = COPCEP | q = 0 | S = 0 | Stoichiometry = C22H20O10W | MND = 9
W         4.63974576918286    6.24885681913614   11.71863498788167
O         5.78423637024568    9.16380331819112   11.70289954591922
O         5.14572511081841    7.38697774817381   14.59191540489486
O         7.02169895898661    4.87275441949690   13.20092778483240
O         5.23900167134504    2.03868828252858    9.36686219517328
O         6.46894499788853    1.11262677133176    7.74134754310086
O         9.56545600201569    2.42105829112440    7.89423525306598
O         8.76361968571718    1.30838600106064    9.66627974848721
O         7.44484949498709    8.34576763578430    6.26568924167543
O         8.53219215318905    8.04965913394989    8.20494545276173
O         5.17629103618969    8.02566035353275    9.03964144601416
C         5.38047212946722    8.09370848394133   11.63879621002480
C         4.91753930241861    6.96215640352052   13.54261635859801
C         6.15489553132931    5.36185157286139   12.61960630785653
C         2.63710313734815    6.58100656362844   10.52292063075190
C         2.32511549072347    6.24786339735285   11.86189558554286
C         2.78646622506135    4.91893933252866   12.10505196029521
C         3.40159815016940    4.44799282320986   10.92240961167347
C         3.30352568045519    5.47859248027562    9.94660661164447
C         6.10283839049540    6.10713768393256   10.09889049196301
C         6.95722805060317    5.16768554354844    9.67858499423800
C         7.30592041185098    3.79525660084510   10.12659407906180
C         7.38939199913585    3.00100075928735    8.79715471102785
C         7.25906969450728    4.02580880954149    7.63644273174982
C         7.49884428060251    5.38851976615643    8.28984413409686
C         6.72861646053824    6.60718894902062    7.77629744657092
C         5.91757776162131    7.06856333901693    9.00917709648095
C         6.23818800712309    2.00506486553842    8.69957938073532
C         5.45007847464612    0.14339996451698    7.51852001547433
C         8.70169334223213    2.22829701506559    8.70388206536459
C         9.94577193329548    0.51666405711177    9.70322195611942
C         7.59150730137602    7.75965357654129    7.30253918521597
C         9.36778809118312    9.15968443055825    7.90228503470521
H         2.32015946889405    7.47089033816552    9.99591248576196
H         1.69036019436818    6.82386995997313   12.52468993274958
H         2.56010796376680    4.32623374588758   12.98299064289152
H         3.72598046655990    3.43423773449760   10.72330124306621
H         3.54393014477721    5.36971479915618    8.89660652532856
H         6.54394793082503    3.37194785891121   10.78309006465520
H         8.26043243484435    3.77853723851929   10.65567546211289
H         6.25406294070261    3.98324838376515    7.21304525568368
H         7.98096358684883    3.79374179894685    6.85467292928074
H         8.57138734542324    5.59569248785603    8.33031468050377
H         6.03877337542155    6.35945497378378    6.96600474235990
H         5.27399584863780   -0.43359808045124    8.42808648007072
H         4.51987189159946    0.63312200066583    7.22452952430838
H         5.81267233005728   -0.49851863889948    6.72046859688855
H         9.83119688458930   -0.15872333840932   10.54666003088875
H        10.05347655507783   -0.04270184786746    8.77219397401410
H        10.82278416663820    1.15277460521581    9.83592166581458
H        10.10934193141575    9.20490277206448    8.69584428558229
H         9.84661111258321    9.01989372880844    6.93057836937835
H         8.77705233021179   10.07750428706870    7.87691790562310

