80
CSD_code = COPDOB | q = 0 | S = 0 | Stoichiometry = C35H36Cl2N2NiO2P2 | MND = 4
Ni        5.69474705227926   10.93903674040358    5.58534327275576
Cl        6.38368416199070   10.94571974627086    7.58847059189994
Cl        7.25398712843864    9.83397383917190    4.69636267611635
P         4.78070375525717   11.03948103263850    3.67661066868677
N         4.97902100263496   10.05386268552819    2.33883771787684
C         4.98178412523948   10.81423755412725    1.15821604895695
H         4.99555649528623   10.30602833033244    0.21506916606899
C         4.89177984838769   12.12465183014114    1.37377714578994
H         4.86496662390921   12.91603442167660    0.65071368592688
N         4.87432842912196   12.43602780640511    2.73776450774039
C         5.54283486646462    8.75084283355542    2.35494200598616
C         4.91556486587253    7.74693607446866    3.09893329888192
C         5.41265268256694    6.45420129699146    3.05396527310828
H         4.92492637080436    5.68066599543147    3.62885774534067
C         6.52497667118651    6.15246409258359    2.29189717617109
H         6.89928534359467    5.14072038022007    2.25360484080263
C         7.18084835176346    7.16353996288867    1.61838245183753
H         8.08628260783627    6.94371435983090    1.07208101859363
C         6.72156370567005    8.47356338101230    1.65253709286959
C         7.55623124257053    9.54519725230050    1.01782006209491
H         7.24755329441959    9.75940916415603   -0.00468117800864
H         8.59387163914615    9.22123020461575    0.99352906053835
H         7.50078817343009   10.46197493915292    1.60071468204959
C         3.74930828993831    8.07090925922045    3.97925915547822
H         4.07973293557354    8.73216512558477    4.79274021586043
H         3.34287352051463    7.16786561540611    4.42912814402284
H         2.96083907830802    8.57132681378896    3.41875430278610
C         4.86811646302531   13.75905099888039    3.23745860348979
C         5.94539278247703   14.20462159539595    4.01631706867847
C         5.93054464201840   15.50609927244770    4.49781090896387
H         6.75998142460204   15.85288186650589    5.09551567067627
C         4.88213363071182   16.35894552087360    4.21263241002666
H         4.88809965033733   17.37036854984931    4.58937763291970
C         3.83170298010274   15.91390215939770    3.43504895388850
H         3.01115349262676   16.57737201543941    3.20329790563799
C         3.80461368651356   14.61701636777105    2.93829946629030
C         2.63896446716002   14.20148255637380    2.08987231811718
H         1.70737305183735   14.50338602353194    2.56739030377790
H         2.61412550524704   13.13137490778871    1.91437776219881
H         2.68794017489613   14.70115456137571    1.12175611508914
C         7.11184050370909   13.32112232948229    4.31493005135568
H         7.98651571723379   13.91478727194461    4.56846323630332
H         7.35513594980451   12.67632498991129    3.47009497216203
H         6.90452636536236   12.66882525693013    5.18994438471897
C         2.93469125893455   11.12894469198931    4.08468901174086
C         2.64498594019632   11.69722300641333    5.25782162297852
H         1.62645409659324   11.91211941136363    5.55917554110985
C         1.93089901178455   10.80307451608967    3.06020087357710
O         2.13189659402935   10.85507887462106    1.86952645676032
O         0.77741768784724   10.39692568554239    3.60871581132376
C        -0.26721392674934   10.02764791179514    2.70633688356137
H        -0.91990914238604    9.37145609376472    3.28534110327558
H         0.16942880842047    9.47618747645596    1.86686056402332
C        -1.02098663283051   11.24712577780076    2.19641755323322
H        -1.84307436686705   10.92631526772742    1.56336153734243
H        -0.35494709264873   11.87935073211892    1.61393835200748
H        -1.41803026724390   11.82162979391674    3.03016300041905
P         4.00669108748258   11.89757101902045    6.45117689717797
C         3.22394903928201   11.17956523371939    7.92592184400966
C         3.40550787244178   11.73130866642399    9.18839447007425
H         3.99166006651043   12.63126638166970    9.30263974283087
C         2.84380892352328   11.11699611502008   10.29264720700878
H         2.98655578179193   11.54574361860379   11.27347191114151
C         2.10900771689121    9.95186356120740   10.14560814973287
H         1.67698241116010    9.47267487808435   11.01160902723766
C         1.93692105030934    9.39417489605156    8.88911963510662
H         1.37327005201303    8.47986710452225    8.77426908297467
C         2.49574343386409   10.00203916145337    7.78063736883333
H         2.37398602458193    9.56262015924062    6.79854085516815
C         4.05596164207698   13.67257371053055    6.83300553402705
C         3.01053653558452   14.52308282533881    6.49430228407934
H         2.15326286928744   14.14885053083030    5.95524257164757
C         3.07178893051087   15.85951013388668    6.84465932976919
H         2.25673074985279   16.51821703957867    6.58261992920246
C         4.16952565452513   16.35350648472742    7.52912912169757
H         4.20798293562296   17.39709576491965    7.80449988297141
C         5.21968752463453   15.51056185334430    7.85291676682755
H         6.08112660411572   15.89467198113907    8.37881025439122
C         5.16828970256892   14.17397250757262    7.50341526309579
H         5.98405867243021   13.50649015171613    7.74799596511610

