47
CSD_code = COPGOD | q = 0 | S = 0 | Stoichiometry = C20H20CdI2N4 | MND = 6
I         2.74315344892568    0.00002399657561    0.00001058499149
Cd       -0.00005551435174    0.00000589815596    0.00000360867380
N        -0.00000898063495    2.55265279639856    0.00006679446087
N        -0.00004705823281   -0.00006898818395    2.54801362505546
C         0.83412719862146    3.23378194059872   -0.77561732081138
C         0.87085562333226    4.61828169412769   -0.81241689554130
C         0.00007247652790    5.32654042915574   -0.00001840793780
C         0.81915754891214    0.79137348058629    3.22903135879473
C         0.85481469101436    0.82921574874083    4.61352492056126
C        -0.00001857209227   -0.00001953427419    5.32171370954713
H         1.50584725281881    2.64688149603085   -1.39024734650688
H         1.56780338526161    5.12571424059198   -1.46078805453724
H         0.00009559939879    6.40678883261703   -0.00006181832836
H         1.47911514820986    1.41854774451591    2.64191594275465
H         1.53872599560594    1.49126969340224    5.12103488787763
H        -0.00000206705301   -0.00000614501986    6.40195745059308
I        -2.74322278324464   -0.00003392327935   -0.00001026665884
N         0.00003729297728   -2.55264506644168   -0.00007420051551
N        -0.00006454427079    0.00006794910581   -2.54801207240763
C        -0.83411456546100    3.23387750132220    0.77570092851718
C        -0.81923655230540   -0.79148913349590    3.22907480754983
C        -0.87075733114188    4.61838261134955    0.81241848172906
C        -0.85486390069177   -0.82928270324565    4.61357091058661
C         0.83418432572647   -3.23378825052349    0.77558442011564
C        -0.83409999820434   -3.23385553637150   -0.77568465570010
C         0.81913912154178   -0.79138127521242   -3.22902384013601
C        -0.81924768704387    0.79148887630076   -3.22907930694858
H        -1.50585345147995    2.64705319102580    1.39038514999598
H        -1.47922481125393   -1.41866412685162    2.64199523407108
H        -1.56768117862932    5.12590216687531    1.46074807979482
H        -1.53875798630659   -1.49132486559714    5.12112146172322
C         0.87086939120894   -4.61828915054076    0.81240505568065
H         1.50585638596178   -2.64689813963633    1.39028065042627
C        -0.87076708864497   -4.61835954692045   -0.81240252444462
H        -1.50574964044356   -2.64701820503371   -1.39045722948647
C         0.85479941558077   -0.82923148144185   -4.61351734139669
H         1.47910721649790   -1.41854050868937   -2.64190413228814
C        -0.85487071451999    0.82927570396739   -4.61357565456935
H        -1.47921925578254    1.41868484676755   -2.64200323734920
C         0.00005515574656   -5.32653258057472    0.00002812400697
H         1.56775589572782   -5.12573532672595    1.46083340945699
H        -1.56765384187506   -5.12586608052550   -1.46078421577155
C        -0.00002699665748    0.00000547325626   -5.32171232842665
H         1.53870501091636   -1.49129519750462   -5.12102281560906
H        -1.53876301907994    1.49131556176303   -5.12113112140953
H         0.00004929704712   -6.40678082250576    0.00008129438869
H        -0.00001933815940   -0.00002528463490   -6.40195610457247

