40
CSD_code = COPKEY | q = 0 | S = 0 | Stoichiometry = C13H20BCrNO3Si | MND = 9
Cr        3.45526826986835    8.76910739139311    2.40873113598978
Si        2.54059040788499    5.39190503721713    3.37559043685567
O         1.28358034450824    9.08258597789177    0.40428885190685
O         3.37392740086530   11.72908273757682    2.15843823671311
O         1.15858621304871    9.55071639879363    4.12327278524184
N         3.76782051986001    6.58671893474126    2.85973731188118
B         4.16344175646732    6.73505269725552    1.47946155845516
C         2.14889685620910    8.92448151935583    1.15532953700575
C         3.46910089719556   10.57893852030436    2.24133639167162
C         2.06371789688878    9.19435380088431    3.49160473475184
C         4.35394456310619    7.37980384243169    3.82022463879421
C         5.35748006765863    8.29022505736887    3.54124356580290
C         5.73778965251876    8.54552478353923    2.20141598185086
C         5.18379925740176    7.81016614862376    1.16581152277585
C         1.15023923123660    5.43608781915338    2.08139879682960
C         1.82287586477858    5.94782930750791    5.05198145602742
C         3.45601274787021    3.69268773356559    3.53857149472736
C         3.83783841974253    3.13661190446311    2.16468280286393
C         2.52558056499817    2.69235265431798    4.22736115442990
C         4.73221385079041    3.84037964208766    4.37524274405422
H         3.70707593018959    6.01178662110174    0.68025958631710
H         4.11395206590735    7.15653690649470    4.85386075214213
H         5.85483512317064    8.80043907174254    4.35734042130276
H         6.52328964357664    9.27410074276172    2.02146422957673
H         5.54879151439135    8.00379568591762    0.16315204376560
H         0.28807399332996    4.86988773529697    2.41831231580303
H         0.82918324467549    6.46063986028257    1.90922064813186
H         1.45776393780494    5.02633818944982    1.12570979825818
H         2.49814461873209    5.79071142822405    5.88812964591571
H         1.55088092166048    6.99927432922476    5.03172726111739
H         0.91901505682789    5.38704291634693    5.26584246730627
H         2.95336153533097    2.97600274989541    1.55375757813648
H         4.34962776264076    2.18132266529342    2.27597431490489
H         4.50197964282643    3.81770819925289    1.63793839357525
H         3.01073029559798    1.72112460227541    4.31282983355460
H         2.26130233587686    3.02825489241697    5.22646094253999
H         1.60925970342470    2.56484821285948    3.65695786419460
H         5.22884600653158    2.87610981324290    4.47587353875919
H         4.50706229453048    4.20587820968223    5.37516169129627
H         5.43071959007634    4.52928525976560    3.90310153477264

