43
CSD_code = COPLIC | q = 0 | S = 0 | Stoichiometry = C22H15CoO4Si | MND = 5
Co       11.30731609204761    6.70465170754193    8.20018457385302
Si       10.02311959303763    8.25044895870550    6.89881289722704
O        12.87975866037516    4.81595681709694    9.76826966425378
O        11.90370041177870    9.02889616630730    9.91212431649247
O         8.74897798866137    5.29016381414039    8.56801064180240
O        12.84545944220735    6.31386532747570    5.71815725729520
C        12.26223571941301    5.55301771764571    9.15393193134700
C        11.65537322596112    8.13582177365113    9.24313330502897
C         9.73474563832652    5.84617026689567    8.40677520229474
C        12.24366248503029    6.48367102166890    6.67526443730935
C        10.80312782159462    9.99159199579372    6.86372036917549
C        12.15813317707000   10.17271691990202    6.60043702862425
C        12.71138506966149   11.43858653073057    6.54702560779574
C        11.91567354282118   12.55179145646001    6.76129708092020
C        10.56638296601484   12.38888628936285    7.02481299643326
C        10.01724596507070   11.12010986838754    7.07444243610195
C         8.25245650331742    8.45756841034161    7.57950115164771
C         7.14935441676318    8.32809967337127    6.74196374337879
C         5.86450915451474    8.49590804522804    7.22684326273729
C         5.66014777741947    8.79846942326080    8.56211097692299
C         6.74812435937859    8.93381481630797    9.40860500987618
C         8.02972557971339    8.76217691348870    8.91976201186631
C         9.85551527219147    7.68634949258995    5.08355874768711
C        10.15982570113250    8.55411113883460    4.03977480664804
C        10.02020801799809    8.15774871152878    2.72165844351801
C         9.57083097050346    6.88275374428428    2.42374604171406
C         9.26233724459106    6.00697710506022    3.45156360666649
C         9.40703258711773    6.40670143774830    4.76696228973468
H        12.78921595806546    9.30983425660214    6.43467523506604
H        13.76534020225583   11.55758921469275    6.34056755741384
H        12.34654984408875   13.54165031403549    6.72391413735812
H         9.93946102289326   13.25274344965436    7.19277910695963
H         8.96334879067817   10.99923058348448    7.27867220060574
H         7.30270801817796    8.09438612469047    5.69847578400405
H         5.02081993665389    8.38960407986164    6.56024209543895
H         4.65746245653376    8.92755789342192    8.94264940315642
H         6.59624787356632    9.17063126009202   10.45185950019740
H         8.87254652259203    8.86761607662366    9.58938851705851
H        10.50892215854950    9.55102913051906    4.26624671105745
H        10.26307064873808    8.84612908845829    1.92502533570270
H         9.46249575856628    6.57121429827635    1.39511463231983
H         8.91086348652400    5.01025791911732    3.22677053027744
H         9.16698193840358    5.71440076665888    5.56266941503051

