45
CSD_code = COPPUT | q = 0 | S = 0 | Stoichiometry = C13H18BrCoN6O6 | MND = 6
Co        2.90674971072673    6.01555984452611    3.41312780203707
Br        0.94689709704017   11.99930149313452    0.85204312181082
N         1.10745813421384    5.39646075051892    3.33405082256717
N         2.93649248239141    5.31712828150363    1.62566644930378
N         4.70508500200899    6.63996489734268    3.49006873703404
N         2.84827157598263    6.80570550890164    5.16211197601921
N         3.41708056526992    4.44950187378538    4.08554650278358
N         2.29261376538438    7.89166091867364    2.60841806781923
O         0.28066949889651    5.59019801662555    4.29485051825980
O         3.99321437182092    5.38730893622318    0.78471768612216
H         4.75696357609657    5.76577288056899    1.36566676104944
O         5.50574811592186    6.52803394141209    2.49448148420884
O         1.74914810609219    6.86759200612978    5.94783699845770
H         1.04685523700907    6.30184992135493    5.44850141590173
O         3.05366746300336    4.18705683468441    5.20715642900172
O         4.09605009457975    3.74147705218770    3.38083765629339
C         0.78492477280430    4.78838221540279    2.22914501622868
C        -0.57410962103701    4.21859454887622    1.98074159960029
H        -0.51170811116953    3.14654392994126    1.80181683138487
H        -1.03956413656607    4.68568495899082    1.11398312689813
H        -1.19043960979943    4.39613962940946    2.85936973828606
C         1.84475186329638    4.74128595846566    1.25057316506535
C         1.66346956570318    4.09999753278805   -0.08254669183307
H         0.91143587224903    4.63470995888291   -0.66099591559475
H         1.32850403417693    3.07250270067851    0.04244708220060
H         2.60670834657031    4.11017665473692   -0.62192853337115
C         5.04228748743043    7.20422697977221    4.61375889454591
C         6.41056032639035    7.74653563894167    4.87287373008042
H         6.87712924748089    7.22330449886867    5.70601893537080
H         6.36984572188352    8.80805848801087    5.11218591474937
H         7.01597357243319    7.60031442399112    3.98093481745690
C         3.96999747339356    7.29029352584757    5.57588830076951
C         4.15546637938130    7.91366075968125    6.91692417740518
H         3.26521122528245    7.74990377354794    7.51861549208647
H         4.32701055441708    8.98483750764319    6.81573413280257
H         5.01802466509897    7.47660220552399    7.41524606783594
C         1.17597033543269    8.48202947648748    3.02849278174067
H         0.59802293721945    7.96856170209695    3.78473127767963
C         0.73443303834190    9.69912871923787    2.54065620090507
H        -0.17631076991686   10.13981612516804    2.91233339851711
C         1.49428066312193   10.32851325606855    1.56643133101436
C         2.65873553687794    9.72213717649960    1.12025835830568
H         3.27466293450015   10.18084440033049    0.36393527804243
C         3.01474923015553    8.50491945793499    1.67335705402819
H         3.92141166840910    8.01442063860239    1.34633600912913

