43
CSD_code = COPQEE | q = 0 | S = 0 | Stoichiometry = C13H18BrClCoN5O4 | MND = 6
Br        7.44051787593113   10.98272106203959    8.36798907332028
Co        4.59351073412593    8.04685120243889    3.14406818162547
Cl        3.67641193957244    7.08299136026214    1.42496094453857
O         3.98353258116917    5.88483292061655    4.81475843419202
O         2.95395221812284   10.37647597864196    2.62416386529355
H         3.83957984085453   10.49410055942760    2.10528838541183
O         5.29482824737033   10.30316426609693    1.64169533844347
O         6.17466893212462    5.65479655065251    3.55419716665427
H         5.30013969827267    5.55049139738441    4.09586128966748
N         3.53021893943722    6.95839714110997    4.27437133469529
N         3.06865105911028    9.16612121339972    3.22600355120410
N         5.62680363052889    9.10242125872300    1.95472133091218
N         6.04916350410513    6.85334370571917    2.93190990940776
N         5.42639317536088    8.91830830153468    4.69690956449204
C         2.31643098396886    7.38527673678937    4.45676099915532
C         1.29982185028889    6.63914408631373    5.25775025276492
H         0.41587278021032    6.43735508181856    4.65588935814403
H         0.99851021112906    7.21121013423706    6.13466385598435
H         1.73676308654865    5.69632120053436    5.57938661391224
C         2.04859523723824    8.65345678690218    3.82927085992092
C         0.70942007641143    9.30362045045701    3.89268190052658
H         0.74934853696623   10.27550684339133    3.40786509833990
H         0.39127287243383    9.42149940400198    4.92723114150580
H        -0.02133373002459    8.67890821510009    3.38057393682792
C         6.69117208744445    8.51751653188862    1.49262257147652
C         7.60640476790660    9.15268618279220    0.49724383187753
H         7.22106797925787   10.14005251310285    0.25278064491611
H         7.65306675222102    8.55442586074725   -0.41090662377493
H         8.61359580072000    9.24839336436721    0.90056420359780
C         6.91793108660622    7.20682063305000    2.04455346155147
C         8.06973671737600    6.35824516110212    1.62805107962833
H         8.02647503752672    5.40291340380728    2.14385300130634
H         9.01036139279163    6.85462997246556    1.86136190369411
H         8.03095901403369    6.19050690512123    0.55350531853190
C         5.86624879734624    8.20154495706038    5.73376648662733
H         5.72435880664493    7.12962860981217    5.69665764122233
C         6.46762476568911    8.76684593787034    6.84188417323704
H         6.80558895348408    8.14365302061663    7.65389145194138
C         6.62227184829641   10.14507182149299    6.87880791578566
C         6.16770930001483   10.89974005794475    5.80709708540617
H         6.26869386764653   11.97287619071982    5.79528813707206
C         5.57822134656012   10.24384531638139    4.74343682127107
H         5.23243739717750   10.81698770206297    3.89336850769135

