43
CSD_code = COPQAA | q = 0 | S = 0 | Stoichiometry = C13H18Cl2CoN5O4 | MND = 6
Co        0.49170534762305   13.21252878827841    3.12828395773959
Cl       -0.42538051659074   14.16464282425693    1.40226978672416
Cl        3.17859907052687   10.38645041115149    8.28612942522908
O        -1.00421539336544   10.87286307286461    2.75826309603508
O        -0.23837411481873   15.52649207543059    4.71068267401015
H         0.70218753850835   15.69811359591052    4.31778772487773
O         2.06974107358638   15.46519943390765    3.65538834678756
O         1.16860254742935   10.95291966516572    1.45003432072256
H         0.23501191786383   10.77332152124506    1.85832139798505
N        -1.01040707419198   12.06135909910232    3.24584667120447
N        -0.59768344324750   14.31575519604269    4.21577411784750
N         1.96182830723370   14.39585245956366    2.95208611802474
N         1.32024018211966   12.35080477098081    4.69453810463660
N         1.51430733561067   12.17813910302570    1.91729580773532
C        -2.03683226952868   12.56780590330729    3.86111896629763
C        -3.33765344727497   11.84816200587199    4.01017698529014
H        -3.25788491437801   10.88272077683554    3.51554388414294
H        -4.14218754498370   12.41877029599707    3.54988146717641
H        -3.57916004415395   11.69531282577745    5.06120090374663
C        -1.79874039689794   13.88066402614703    4.40236654838374
C        -2.85440947028613   14.64435766422872    5.12576291182096
H        -2.46354506618762   15.61122816859638    5.43046849186444
H        -3.18625662220258   14.09280729387746    6.00388793235964
H        -3.71215673329234   14.79187956268366    4.47236068830978
C         2.84487678654485   14.03774155793209    2.06850967643021
C         4.04279593647897   14.86323914908942    1.72831875943305
H         4.01270756095725   15.77672456935165    2.31801127107209
H         4.03749910862721   15.12125407380988    0.67090987434151
H         4.96284111712531   14.32332806303237    1.94821892801861
C         2.57088126628436   12.76206993750633    1.45965515815591
C         3.45185673238445   12.17812396478843    0.40901962029859
H         3.05880146899514   11.21527780804313    0.09456402804990
H         4.46387228018391   12.05211320646694    0.79004430882867
H         3.49182296695359   12.84774737571984   -0.44808698552255
C         1.34915906124400   11.02185865581280    4.81472837611739
H         0.89500972596570   10.44012121218223    4.02362917409607
C         1.90893885986637   10.37336569108037    5.89829439348024
H         1.90530842358763    9.29708081369141    5.94763026114917
C         2.47044405924811   11.13625895038767    6.91460352867201
C         2.44551559950469   12.52017358973293    6.79476897708575
H         2.87006643778819   13.15241927455036    7.55691143646575
C         1.86311213900438   13.07797327759562    5.67329751059288
H         1.85045420015384   14.15387828897740    5.56000137428477

