72
CSD_code = COPSOQ | q = 0 | S = 0 | Stoichiometry = C31H30MoN4O5S | MND = 6
Mo        6.13020707553251   10.84561491220022    2.42570090693021
S         4.69178954981344    9.10179426876005    3.42122734768472
O         6.89719026497653    9.66881137594555    1.56336722772693
O         4.92242930014196   11.59327058772633    1.60139412898365
O         7.44447993284067   12.16525392590998    2.56880358676120
O         7.54521286936372   10.04749727366113    4.21391730869569
O         6.85022529300929   17.59043315128297    3.14529707522060
N         5.46986382562005   11.78527145493754    4.26234814010257
N         4.78411467610921   11.11543876440947    5.20781824975066
N         3.80607373677098    9.17250676117375    5.90648692848335
H         3.63504939317608    8.21454856562297    5.63316164143381
N         8.74762832645930    8.32985188988421    3.35977346671762
C         6.31495422839060   13.95892785333912    3.63897522410855
C         7.26601055572871   13.46225380261912    2.71762524068205
C         8.04876941656621   14.37751988533926    1.99973535740031
H         8.77387582747794   13.98860615167455    1.29909776860349
C         7.87586704050799   15.73130724306832    2.16147301655621
H         8.46205898908175   16.43804124764251    1.59586314623336
C         6.93002842819833   16.23218654859354    3.06805115736149
C         6.17083622729680   15.34610428558127    3.80785583882180
H         5.43797209549043   15.69291972884331    4.51961587092156
C         5.54689649283076   13.06421855224544    4.44736084813382
H         4.99986546592682   13.47701429093138    5.29663591009775
C         4.43575642666168    9.89880694829162    4.95552253023348
C         4.11848497095505    9.37713575412928    7.32752776464353
C         3.54010353649169   10.68545826289039    7.83870302563066
C         3.92393774715826   11.16138689622262    9.08728305579015
H         4.65814182080226   10.61977756566927    9.66520416600128
C         3.37530242089516   12.32445201272030    9.59604430252038
H         3.68834155750054   12.68547401803443   10.56491294990755
C         2.42645238701228   13.02154116256560    8.86787688981182
H         1.99899574575534   13.93128397057538    9.26335137473867
C         2.02317253375491   12.53909795354782    7.63498148239023
H         1.27508179500811   13.07089637711685    7.06536744704688
C         2.56985252190548   11.37430909504045    7.12541519365986
H         2.24666169053971   11.00557955869061    6.16574478400260
C         3.41579939619689    8.30497861076712    8.14307560844044
C         3.98101625935879    7.80254485730804    9.30839125395466
H         4.96109618930571    8.13358928377137    9.61821378090375
C         3.30087569368202    6.87046308052480   10.07227733310510
H         3.75505148998109    6.48458259580631   10.97299381222614
C         2.04545125463014    6.43428020518666    9.68661604239585
H         1.51655302013015    5.70595815928542   10.28293972563616
C         1.46891225821469    6.94392215183623    8.53582081006197
H         0.48498925848277    6.61767511799415    8.23317620262888
C         2.14628407289440    7.87725169079630    7.77213097934755
H         1.68247744207279    8.28521849234961    6.88709432171171
C         5.63776857391676    9.29502976236136    7.40635091991489
C         6.24437453937116    8.05557412519453    7.22769085854535
H         5.63391187104550    7.16575429812028    7.15704572620252
C         7.61998581157138    7.95051836764173    7.13616324642901
H         8.07542298267621    6.97933806468387    7.00453063938893
C         8.40880866333690    9.08637720448654    7.19892294671224
H         9.48309129820018    9.00648658315327    7.11493215900496
C         7.81201676953477   10.32376287365546    7.35819514386431
H         8.41908083272500   11.21650483712452    7.39229831355592
C         6.43548175430507   10.42964252395821    7.45995551976112
H         5.97943787980900   11.40073616314644    7.56751483928729
C         5.88642313825450   18.15630421375652    4.00013595282813
H         4.87380730234475   17.84531173992233    3.72466880950581
H         5.97910974977587   19.23385513494238    3.87460490512599
H         6.07499659484942   17.89708552388644    5.04712226884828
C         8.55775342578237    9.59662218858408    3.67630089432517
H         9.42831168825212   10.24946139417581    3.48477531037413
C         7.66395691137135    7.38126775687796    3.50087481644806
H         7.04635651642306    7.67544756276924    4.34918689049312
H         8.07497420537847    6.38693399401298    3.66653448080509
H         7.04359427805053    7.38410151604426    2.59969833084703
C         9.87292488584480    7.89864681197140    2.57111298942535
H        10.63674924959509    8.67306902412367    2.55198999192460
H         9.55179147718913    7.69633831300476    1.54674489011218
H        10.29557909989237    6.98727368025426    2.99749893183346

