68
CSD_code = COPSEG | q = 0 | S = 0 | Stoichiometry = C30H27IMoN4O4S | MND = 6
Mo       -3.35999860651372    0.43229142382082    3.45159297124725
I        -1.02475798137529   -6.76938708283953    3.37600100400766
S        -2.93340719610224    2.39595024750127    4.85375888294782
O        -4.18325671925004    1.41838159743112    2.42364881162028
O        -4.31911110222416   -0.37328706919872    4.51336717515452
O        -2.70336535933313   -0.89320384152527    2.29857691073231
O        -1.42748344081877    1.42475456394939    2.45192124277697
N        -1.63930901999312   -0.22455565796994    4.63049890682609
N        -1.11214931316649    0.54441469990101    5.60070922563057
N        -1.12595194406442    2.50814235129162    6.75946267825174
H        -1.50585793304658    3.44154494759044    6.79959854666091
N        -0.59916436293825    2.85012888808745    0.91315079905273
C        -1.63017898380169   -2.46203288371806    3.71383029101044
C        -2.36885444626831   -2.13388462027919    2.54706627945730
C        -2.70207095415800   -3.15553518524817    1.64465293951576
H        -3.27009907343782   -2.89111917475584    0.76403660550227
C        -2.33383073439761   -4.46130810952408    1.88347674064875
H        -2.60840872757817   -5.23791828510595    1.18614674642529
C        -1.60534409059728   -4.76877601754268    3.02623402440590
C        -1.25022700558288   -3.79359126591912    3.92766067647660
H        -0.68602882843540   -4.04139534214344    4.81456812928015
C        -1.24388978343026   -1.45683620238472    4.65473009592217
H        -0.56938236956958   -1.74692016604920    5.46141488830692
C        -1.60983886653047    1.72459219582209    5.78228696679123
C         0.14755253134436    2.25170452232431    7.43092853339793
C         0.07370156665072    1.01648461618545    8.31741547307669
C         1.23588665468546    0.55681094851143    8.92836291507249
H         2.17302110735047    1.06078725536473    8.74247430861916
C         1.20296004115342   -0.53829456210566    9.77172045608146
H         2.11522112034458   -0.88659360573099   10.23347085313417
C         0.00435023800873   -1.18356670901173   10.02534558407673
H        -0.02279819562204   -2.04116914424651   10.68102037295449
C        -1.15878778707199   -0.71538690202396    9.44054631333250
H        -2.10020887149759   -1.20489475911273    9.64102562964326
C        -1.12798919965872    0.38275110758697    8.59760191923163
H        -2.04630953943167    0.73607458884328    8.15670053479986
C         0.42824912743924    3.39793967059025    8.39075039326597
C         1.71466771673176    3.88313025659779    8.58765807415330
H         2.53761036072114    3.47981724311767    8.01646779429805
C         1.95152731120149    4.88984792694293    9.50764700586570
H         2.95647871392663    5.26055222042587    9.64550858974301
C         0.90917424855534    5.41887290296413   10.24787004944287
H         1.09520650395073    6.20570212962429   10.96329282640949
C        -0.37228575803852    4.92492996236540   10.07265059337193
H        -1.18987552975335    5.32113963482595   10.65612949331939
C        -0.61037759758286    3.91694010661631    9.15615249258369
H        -1.60870682349522    3.52060541941239    9.04614990725131
C         1.18023896572973    2.14566978335693    6.31584355634039
C         1.73659756407082    0.93834372798170    5.92018768477652
H         1.49788610143882    0.03616581906373    6.45929145528558
C         2.58823900496070    0.88331521704843    4.82977957029867
H         3.01314902769796   -0.06386660218267    4.53108084114108
C         2.89123340515508    2.03124556417668    4.11933940900066
H         3.55872046000352    1.98595225429428    3.27092426546712
C         2.32818693271566    3.23799779883510    4.49992259762511
H         2.55569057125984    4.14083479511771    3.95137476386243
C         1.47097743591533    3.29219597438434    5.58280957991957
H         1.02512779791186    4.23495349160730    5.86642434563687
C        -1.59147132429360    2.25206992338307    1.55456445244871
H        -2.60039224837944    2.54853482299398    1.23673090346557
C        -0.82468378725845    3.81459327089223   -0.13254837578675
H        -1.89202871759927    3.95507795210150   -0.28524331971387
H        -0.37323314210484    3.47008370641202   -1.06560835813582
H        -0.37505366850094    4.77250374274452    0.13777052882149
C         0.77941354976481    2.55643276483539    1.23341084049747
H         0.80183595961744    1.86106703610179    2.07074074820543
H         1.30127377009673    3.47237742083870    1.51346230239811
H         1.28049124456907    2.10951669475498    0.37266055669751

