68
CSD_code = COPTOR | q = 0 | S = 0 | Stoichiometry = C30H27BrMoN4O4S | MND = 6
Mo        2.27514778529387    6.00370475356912    3.47174954205009
Br        4.71597316426160   -0.94851375890120    3.25582473415469
S         2.73945840038362    7.98662209226319    4.83448990200017
O         1.38925437004035    6.96837924717534    2.47601931705914
O         1.37955235844675    5.19802678003048    4.58756812917587
O         2.89631036456737    4.67806627795009    2.29975429523740
O         4.14309418526379    7.01834802357882    2.37774029959963
N         4.05908591389118    5.38052556878879    4.57413209133139
N         4.61223716424377    6.16187271378383    5.51936779821619
N         4.61999281930611    8.13276317979943    6.66528201309237
H         4.22713459164061    9.05985749345934    6.72048242675876
N         4.88098943359374    8.48730331688840    0.83441607812475
C         4.07604143065990    3.14003302721937    3.66275536496780
C         3.27676820046356    3.44766196064191    2.53007606336060
C         2.93177965872476    2.41850510798009    1.63959935775627
H         2.31896527514889    2.66964105342797    0.78570923716445
C         3.34575167654551    1.12320588258683    1.85723275499897
H         3.06710787869014    0.33549414987514    1.17400170465343
C         4.13157004673976    0.83688308686638    2.96868373965468
C         4.50073895140123    1.81960939015120    3.85831482040332
H         5.11007469949191    1.57901984854440    4.71702169133738
C         4.47929788924436    4.15616797897971    4.58456085791328
H         5.19357461440768    3.88267068675418    5.36212504598576
C         4.10714242619032    7.33686950041797    5.71390341023264
C         5.91068495230497    7.88509262669226    7.30533384335876
C         6.91259265757154    7.74809151301558    6.16575840511177
C         7.46953789853921    6.53295659305573    5.79596876960133
H         7.25235308307431    5.64721362793536    6.37033238437111
C         8.29339880564200    6.44838069787990    4.68631172680178
H         8.71832988939458    5.49511869646095    4.40782892153802
C         8.56860854523406    7.57458046015153    3.93122579291758
H         9.21386762099817    7.50665873065766    3.06735171936454
C         8.00634812645490    8.78909106088640    4.28744060733840
H         8.21414120315942    9.67519054553934    3.70488551935780
C         7.17608031287553    8.87237021294602    5.38934457866593
H         6.73003216027997    9.82054134353283    5.65400886234306
C         5.85777681834579    6.67030045043187    8.22166980773886
C         4.66633611886043    6.03141108677466    8.53175325197898
H         3.73863257581162    6.36403096303608    8.09429799423140
C         4.65739241438005    4.95398449685827    9.40173936997740
H         3.72353360207755    4.46032737476944    9.62587602638639
C         5.83227971744073    4.51196764754819    9.98321756848929
H         5.82193398943872    3.67094535020884   10.66045081300664
C         7.02130193331852    5.16188999422953    9.69788843977063
H         7.94286211336404    4.83374211677772   10.15588358498081
C         7.03244132271913    6.23610029722392    8.82772930385741
H         7.96198494632208    6.74428302411462    8.61680435909556
C         6.22352166919206    9.05163910014184    8.23038222383497
C         7.51477264573314    9.54326721551436    8.37132873293053
H         8.31773962901682    9.13084669278017    7.77860618595886
C         7.78199467007570   10.56742869770238    9.26341168510279
H         8.79042069665765   10.94210782258662    9.35841271077099
C         6.76567597138816   11.10832282620531   10.03067849353361
H         6.97543288275255   11.90840289228708   10.72450642109574
C         5.47987684833839   10.60912535112740    9.91063319344660
H         4.68273441758665   11.01484414567848   10.51546738533578
C         5.21171756186149    9.58338426077120    9.02265426700105
H         4.21117887478530    9.18265801592142    8.95698593419785
C         3.92688540987077    7.84658135218617    1.49228296613741
H         2.90038791635267    8.10728471505796    1.20063255240559
C         4.59582081846530    9.45243784411246   -0.19597201865996
H         3.52089387320979    9.54956835605892   -0.32759459061816
H         5.04400954041010    9.13708421510214   -1.14079541882723
H         5.00972118761680   10.42559471562869    0.07698408608009
C         6.27649505960630    8.24527841300000    1.12309416774974
H         6.34440324569391    7.54884576972407    1.95711916287698
H         6.76888093299799    9.17986512275145    1.39448293067984
H         6.77514204215789    7.82024620314260    0.24998660345032

