110
CSD_code = COPXAG | q = 0 | S = 0 | Stoichiometry = C36H62BN8O2V | MND = 6
V         9.44711599387625   11.96261131063660   15.27504757145809
O        10.59233135274545   10.95133455123826   15.40114514522699
O         8.13284545560959   11.22133320813503   14.99774130064943
N         9.01980738331826   14.03820871262536   15.30473656134689
N         9.82657516488670   14.86516648797051   15.98301720273323
N         9.20438842730612   12.25297210291560   17.21732283809867
N         9.71764107861512   13.30749660150379   17.86345395219306
N        12.14918125297314   13.56633635386693   15.23074679076515
N        11.84243757625570   13.49466011725643   16.53996697488715
N         9.85333867029806   12.38706904374359   13.36164663763810
N        10.61127817101830   13.44536817597837   13.07206920467226
C         5.79830313972528   14.49983339785976   14.35348571944823
C         7.17461226690367   14.68945331344509   12.25508966879102
C         7.14325240746639   14.17498280505076   13.69416221622435
C         8.24284765408061   14.77150538653465   14.51576472660738
C         8.57335505503402   16.12084054806733   14.68141859848319
C         9.58540623014690   16.14225575850531   15.62752093357899
C        10.34552566025561   17.30259909000352   16.18678849937282
C         9.63513774534712   18.62495763372635   15.90672766090684
C        11.76583618345087   17.32121656033345   15.61151918183199
C         8.84530681085734    9.14440469993053   17.55760092809460
C         6.71336929551885    9.87504319070634   18.69431111639503
C         7.80162124874536   10.26010518520595   17.69500517454861
C         8.48278659601064   11.53629913785367   18.07570986130619
C         8.52150952372902   12.16951936961141   19.32039335534008
C         9.31094983520259   13.29387645210137   19.14773191853598
C         9.61318933383558   14.37591999424415   20.13750227268785
C         8.60461275476929   15.51574929387894   19.95234544182009
C         9.57411645883855   13.84641559762816   21.56972370637751
C        13.38919566212494   11.19849529880588   13.20210514116313
C        15.32486196140625   12.75494587659369   13.65371460657017
C        13.80442120090598   12.59847432033035   13.66815120094538
C        13.24032726271750   12.82994011948823   15.03368192594489
C        13.66549157989808   12.29014705479733   16.24752860869995
C        12.75176852745254   12.73558884125683   17.18473627572756
C        12.69314794109115   12.42053929137212   18.64423565143082
C        12.20450939890311   10.97929374787463   18.82067674641969
C        14.05806533954094   12.62123771591455   19.30506727456311
C         7.97137927844347   10.39191193257605   10.82459681324455
C         9.53675330148334    9.38509648011556   12.53983343561988
C         8.65104974441739   10.58416493746857   12.17752541668174
C         9.48505362531371   11.82311355986287   12.21738340110567
C        10.04107172213728   12.55532074220401   11.15849825508211
C        10.76874133455094   13.57832157895655   11.74314557098409
C        11.55596781823155   14.69128767861007   11.12203932102357
C        11.75210117284844   15.83891844855695   12.11357309457685
C        10.86000595208620   15.19368985021345    9.85469481401982
B        10.66285461519861   14.28272698034519   17.12756713882365
H        11.20030411948745   13.80937602304644   13.86005988391594
H        11.04627700469439   15.13844002747806   17.85737670981679
H         5.64254350177759   15.57654992769766   14.39957994499075
H         4.98459161283054   14.05489737593415   13.78532357098678
H         5.77099583677165   14.09972952279575   15.36499399409832
H         8.12682931427916   14.45904059421422   11.78234037624037
H         6.38270668262460   14.22131862720257   11.67454683097931
H         7.02464025474726   15.76731427863277   12.23006665394542
H         7.27079714591298   13.08565889513214   13.69727836462691
H         8.12560108243985   16.95987963684345   14.18945790121512
H        10.41882474265260   17.17003167833999   17.27174013926290
H        10.17039824083213   19.44173520136530   16.38543193491372
H         9.59909612396881   18.82257822008316   14.83792488553823
H         8.61853642418405   18.60598772277298   16.29290944025106
H        12.25425515367636   16.36408641202901   15.77590945653857
H        11.73593054945422   17.51931032716884   14.54249901376418
H        12.35392837426023   18.10062559382559   16.09062459757714
H         8.35967695472170    8.21715034408131   17.26321405287592
H         9.56610940192694    9.42267184643056   16.78635258353724
H         9.36205736189680    8.98431103738768   18.50314846449642
H         5.99811275556513   10.68470780714625   18.82137803093188
H         6.17976443602505    8.99771154646332   18.33713935591214
H         7.14818624876636    9.63649847995901   19.66303225008073
H         7.35598910219701   10.41279955542804   16.70209838318918
H         8.04042558303656   11.85144805613667   20.22155011672692
H        10.61481025715635   14.77012097346539   19.94194713169421
H         8.81520807505035   16.32401770040699   20.64911662904312
H         8.65603074633248   15.90595109411232   18.93823620347224
H         7.59392244920990   15.15559938267973   20.13258346974446
H         8.56722131904633   13.53857961796471   21.83910564875089
H        10.24010762678444   12.99397966622253   21.67976721330797
H         9.88919988136134   14.62390106824210   22.26201382722796
H        12.32131968515270   11.04760392590754   13.36138197727632
H        13.61785151336904   11.05883152464229   12.14700373351069
H        13.91949357670231   10.44359874756729   13.77756760503205
H        15.79007982754720   12.02624113208102   14.31223348127956
H        15.70902961523142   12.60144600819533   12.64715336573917
H        15.61054071679928   13.75103725028025   13.98632938757693
H        13.37419564751020   13.33779484501479   12.98438374639911
H        14.50691498119684   11.65052182922691   16.41738190128246
H        11.97812203750468   13.09582053501720   19.11960969400803
H        11.29835296600508   10.81558205163597   18.23974824407810
H        12.95978694631943   10.28244015791535   18.46482935651912
H        11.99993270983970   10.76905353651152   19.86887349711622
H        14.79556395203635   11.94932054405755   18.87405465517018
H        14.40223279557966   13.64425139017124   19.16759689638209
H        13.99074911270769   12.41812872687297   20.37188716307846
H         7.39162543981663   11.27164136664881   10.55413342438376
H         8.70950849363643   10.20674566374744   10.04700017135938
H         7.30126160354166    9.53714106831836   10.86626963894193
H         8.94702003346052    8.47204592145789   12.53307036173073
H        10.35341171649505    9.28187641578640   11.82685481469134
H         9.94187970762691    9.53599117541221   13.54233036661929
H         7.89464281110085   10.67321910621034   12.96833998099778
H         9.92520023708382   12.35902187519634   10.11298739875144
H        12.54175928747330   14.30021366209298   10.83609094116400
H        12.35098258573840   15.52778499016724   12.96612302683451
H        12.26121029727995   16.66702877493944   11.62514367091135
H        10.78753883523118   16.19035499037127   12.47534955439415
H        11.43503569297675   16.00141128234154    9.40811528492449
H        10.76443773956249   14.39756212595223    9.12210180620332
H         9.86639490616389   15.56753259968581   10.09165794138556

