57
CSD_code = COPYIP | q = 0 | S = 0 | Stoichiometry = C28H23O4PW | MND = 9
W         1.81681222357961    2.93665872578343    1.64905098426059
P         0.92398637797064    4.90075408320327    2.74651119837089
C         3.70885802362706    1.96472858204477    2.20929932048882
O         4.75458786176711    2.54844090669029    2.32463333982075
C         2.60731366082506   -0.19431216720061    2.46838216520183
O         3.74912876272834    0.61753194213530    2.30354565600817
C         1.84033258871240   -0.40220431841868    1.15434094474380
C         1.23210378301744    0.88842822053891    0.70612305393122
C         0.03144580387624    1.45413915042222    1.19454216064243
C        -0.21544566736375    2.63993886827516    0.46381688720344
C         0.83365481398065    2.82169775345294   -0.46458979872683
C         1.73923284430242    1.74299565927497   -0.31569681975662
C         3.16729236179496    4.27019191880437    1.14698385749281
O         3.91198415056435    5.01139426240366    0.68795927051554
C         2.22024121179316    2.70501735677785    3.55021944545691
O         2.43266868010568    2.50419133902140    4.67280708661382
C         2.06312796080153    6.13859688170911    3.43877264984182
C         3.37335956260851    5.78944902404903    3.75093976388256
C         4.22258113757207    6.73390873856642    4.30156612301172
C         3.77337770506857    8.02211399878414    4.54217169337820
C         2.46708464766815    8.36997999762385    4.23698894757342
C         1.61112510086993    7.43273351419175    3.68901427190398
C        -0.13446762997351    4.49384435036383    4.16986700310562
C        -1.26984606418627    3.72008013222169    3.93501079576374
C        -2.05462204744823    3.29246714164374    4.98770758397378
C        -1.70154342933089    3.61702161278138    6.28889528802694
C        -0.56476524698478    4.36926620789569    6.52978738305001
C         0.22050364149097    4.80703727459476    5.47697670312068
C        -0.14598246438155    5.92312498595732    1.68471153611952
C         0.37085304281023    6.25255191717185    0.43448868688028
C        -0.36855611745202    7.01949468738976   -0.44524490042386
C        -1.63399056075896    7.45754221977441   -0.08507589284821
C        -2.15007874690132    7.13617889129546    1.15899528206791
C        -1.41032457505898    6.37363858262228    2.04728718177645
H         1.93921889533664    0.22898960893579    3.23202938868847
H         2.99951413805980   -1.14899170991282    2.83058429837403
H         1.06574876852464   -1.15454416719375    1.32396216193972
H         2.53650907428178   -0.77693704199912    0.39977512318610
H        -0.64674012178687    0.98607625029978    1.89580042160876
H        -1.11403879884203    3.24320420823629    0.51006991440608
H         0.85345420969555    3.56224733186499   -1.25304227573942
H         2.56229167238070    1.50793249611966   -0.97912840050734
H         3.72916729252046    4.78512221650402    3.55633861328297
H         5.23936365794602    6.46044430910498    4.53853052021196
H         4.44100034275017    8.75719065612811    4.96667278969418
H         2.11501960786007    9.37376356192374    4.42493168761350
H         0.59060919933875    7.70139678214525    3.45162876235464
H        -1.53302854796955    3.46253583223098    2.91726672955940
H        -2.93837875365581    2.70014779277920    4.79831065350760
H        -2.31006456488778    3.27612131452465    7.11332176731333
H        -0.28313412759913    4.61260807887372    7.54354000455222
H         1.11186774749312    5.38708881371163    5.66803101547347
H         1.35937241752228    5.90060743453216    0.16776917087701
H         0.03720758805329    7.27506091987424   -1.41301937211876
H        -2.21697419501950    8.05038735530311   -0.77411292460435
H        -3.13387888857192    7.48158675618052    1.44184585116688
H        -1.81484001112023    6.13023875798990    3.02000524669199

