53
CSD_code = COPYUB | q = 0 | S = 0 | Stoichiometry = C20H23BrN2O6Pd | MND = 4
Pd        1.93439090299661    4.24437571832849    6.40152006461252
Br        0.62557255953460    5.73161678486384    5.10959702769801
O         3.33972764210439    5.90410942024044    7.81066059621694
O         5.59520762215874    5.80898423993891    8.11161722080537
O         0.64593759955930    1.81581449555412    6.18257455034014
O        -1.28731569091364    2.95464619875080    5.99989500443092
O         1.16457462636980    2.24318351094608    9.17804907168668
O         1.19422709996874    4.47078438961775    9.52509241262430
N         3.58570293572662    4.69441476776610    5.29507822356781
N         3.36870593109476    3.02619830188475    7.47508829890406
C         3.64107563735056    4.61042521844119    3.96864954964051
C         4.78774498053527    4.92780166612442    3.26067997108725
C         5.91022677637936    5.35110102738430    3.95562979701808
C         5.84535997529444    5.44245701185785    5.33753715413064
C         4.65833764628955    5.10894858061741    5.96812321970098
C         4.51381366835815    5.16652017073968    7.49475426506666
C         4.40061463961012    3.71571537930634    7.96155757121692
C         5.34713489039762    3.14582720383973    8.79579830119838
C         5.21435618765633    1.80348553229134    9.12117094823773
C         4.16593523429784    1.08246193311070    8.57635790101511
C         3.25389524409302    1.73513795538190    7.76010192304701
C         3.69514658190317    6.98835770314728    8.64645797385879
C         5.19288055840811    7.14081133468238    8.38116361563315
C         0.27272685808546    3.75397993526175    7.52986753849262
C        -0.08379343623583    2.73699512231007    6.53802696012814
C         0.90145224505320    3.36086483147019    8.78133477411567
C        -1.64041861842350    2.22610212132908    4.82444909484405
C        -2.19071195627694    3.19701566413824    3.79231600507510
C         1.76599230132235    4.23599400321976   10.80325356550334
C         0.71605612734084    3.82704265578214   11.82804555035831
H         2.73462898522261    4.28871521525394    3.46611786478051
H         4.79538616595993    4.84661148486816    2.18594421503058
H         6.81943117181121    5.61001827194776    3.43526378727199
H         6.68818173531455    5.76642689163980    5.92749230955283
H         6.15341745514033    3.75120051712567    9.17642834610692
H         5.92614763093018    1.33391039024771    9.78356192943047
H         4.03834776542691    0.03348114363645    8.78733677325019
H         2.40629265492636    1.22556772530609    7.31878631747492
H         3.49792691229393    6.72997357167528    9.69425146215633
H         3.10057251981437    7.85372097076860    8.35364637691411
H         5.76578403976256    7.49682680064151    9.23559312456462
H         5.37752946597318    7.77856963600602    7.50697577534523
H        -0.46087400409716    4.55586755990026    7.64241857198889
H        -0.74756733759793    1.71009340777812    4.45397503344540
H        -2.38992699644683    1.47848719864139    5.10609638706828
H        -2.42577398564411    2.66427207253306    2.87510126465924
H        -1.45763080777700    3.97274784365813    3.58520002606205
H        -3.09060797214993    3.67291325400112    4.17119163227523
H         2.23461516268222    5.18217720657749   11.08627612272499
H         2.53194303123351    3.45433599679098   10.71965043853260
H        -0.06693329516210    4.57962335119634   11.88036472611062
H         1.17800003237711    3.72144894957356   12.80594945147226
H         0.27455289967151    2.87663766194377   11.53982991310797

