61
CSD_code = COPZEP | q = 0 | S = 0 | Stoichiometry = C30H26AuNO3 | MND = 4
Au        1.53097737828183    6.04080320963870    5.61222889018780
O         1.88858819448332    5.75724928836063    3.66406826795615
O        -0.08643449427362    7.03156642084080    5.32308591952568
O         4.51577664708168    4.38473642265819    7.72724188989498
N         3.15471619623161    5.04536382060648    6.10913188810427
C         3.40732597040731    5.01135641103333    7.37631477755538
C         3.79156255165011    2.16290457604116    2.33052209772704
H         4.15496277855385    2.13210980008184    1.31326439957431
C         0.06313314170203    9.06116192998020    2.28567132843199
H         0.08130179986817    8.93457124241784    1.21209594240840
C         1.38716940547089    6.22878011275260    7.58775984572320
C         5.09080290220098    4.25713998092148    2.59000442178227
H         5.35242155968752    4.00920407150962    1.56451647639320
H         6.01401098183566    4.35666274595815    3.16042861701338
H         4.57028992032933    5.21471346158005    2.58163360874182
C         2.45068696271044    1.24834405385588    4.06452263249998
H         1.75860491396820    0.49686195354610    4.41725885457543
C        -1.00702391173829    6.33955989169120    1.51035539678194
H        -1.71970246647499    7.11957359132746    1.27931056620265
C         1.57664395967388    6.30059286412684   10.37854217021487
H         1.63668211689451    6.33824784144601   11.45592291724454
C        -1.08870820266933    5.11803050821637    0.86481028982624
H        -1.85828506000884    4.94461563322890    0.12665636558741
C         4.20354722731941    4.36809794918994    5.37253276566067
H         4.68529385966188    5.12424123597664    4.74980969855956
C         0.05920649793861   10.48699764070704    4.20703476960566
H         0.06756073595986   11.47459629133943    4.64581747995248
C        -0.03177554882736    6.59366074188798    2.46421504002006
C         3.71844010280234    3.24884858974420    4.47748316392815
C         5.13958360680737    3.91192103173192    6.52392737324298
H         5.23315650978926    2.82425844035733    6.58239144460133
H         6.13601675572339    4.35512979015509    6.46275174856126
C         2.57016887285449    5.66990789803630    9.65473884658954
H         3.41549561561389    5.20587141707401   10.14028582787335
C         0.01250780966837    8.08629458172397    4.48391671287952
C         4.19130541353378    3.19951149382765    3.15936598294078
C         2.46718120981553    5.63824667913709    8.26610386207944
C         0.03402465425934    9.37249502233671    5.02406941085289
H         0.01727598042942    9.47525668809473    6.09988680346866
C         2.47301561804119    0.09112263369652    1.83372330367011
H         1.73428720815477    0.48546753908030    1.13582473519481
H         2.02010510346560   -0.73184793283039    2.38077636761985
H         3.31167049025949   -0.28737578209549    1.25272357238365
C         0.89238889761722    5.58278519668011    2.79065718806097
C         2.91879554882493    1.17604700281139    2.76412110219244
C        -0.17334070207149    4.12785593250318    1.17295635520256
H        -0.22103703650329    3.16806024747739    0.67719978022024
C         2.83515658421853    2.26421423183394    4.93110081408526
C         0.50054060685367    6.88279916836711    9.72311113294890
H        -0.27395596567664    7.37021014557451   10.29720751228075
C         0.80013455299645    4.35702389711304    2.12508922000136
H         1.51935036776993    3.59237780745024    2.37596700554107
C         0.40608293656523    6.84755894929451    8.33770146522323
H        -0.43353644111037    7.29627448386099    7.82916088854798
C         0.02411679404931    7.92913907216684    3.08863112853337
C         0.07982667655005   10.33289306219643    2.83224894023357
H         0.10468755991543   11.19870853835274    2.18655242009779
C         2.23712770815099    2.25630809753830    6.31025417486372
H         1.50287529714668    3.05767119118927    6.40748733776928
H         2.98169191000074    2.38029241979787    7.09334029412209
H         1.72482373570506    1.31242877475633    6.48428676658803

