131
CSD_code = COQKEZ | q = 0 | S = 0 | Stoichiometry = C63H63AgBrP3 | MND = 4
Ag        5.47162215329978    2.92262982944481   17.98180845514177
Br        5.95316840637086    2.79936182775475   20.48952072059445
P         6.88421897465014    4.64023149370296   16.62884007824854
C         8.62302864256422    4.17260891779994   16.33952142823432
C         9.01590776131760    2.87131958780482   16.62191163522402
H         8.28891121933450    2.16462817061673   17.00581872371547
C        10.32502701811988    2.47340674337652   16.42624892704593
H        10.60978219367558    1.45517599822563   16.65104572894038
C        11.27047021387911    3.37189239445804   15.95075661854450
C        12.69722490974496    2.96193227702735   15.75236782479230
H        13.32045882673899    3.39287352337098   16.53610771247897
H        13.07213815599270    3.32032627996007   14.79522918450617
H        12.79977441165309    1.88040327437164   15.78987881631113
C        10.87342827248329    4.67931501638706   15.67851783851889
H        11.60365165067228    5.38844872126238   15.31366197149242
C         9.56791290502843    5.08188310806281   15.87054662048864
H         9.27490492678438    6.10136922049840   15.65964475017692
C         6.32817924106966    5.17031432390576   14.97984242364136
C         6.99262281731712    4.83885859202916   13.80419124413108
H         7.92950285830473    4.29974254585962   13.84516059283712
C         6.46277073970297    5.20584597797218   12.58182440694993
H         6.99299705353455    4.95258047239436   11.67336881573130
C         5.26405293920041    5.90409577574925   12.49816231655867
C         4.59728609194110    6.22065500345644   13.67590708460858
H         3.66126949060189    6.75890629916620   13.63320884956878
C         5.11341570425233    5.84827422724905   14.89966239626299
H         4.57714418805296    6.09152189208467   15.80875954338068
C         7.13129307626583    6.23796180148037   17.47506956924998
C         7.11229930166787    7.47652210346820   16.84512128946568
H         6.94296253684200    7.54599858205297   15.77919969502417
C         7.29686489961850    8.62981485337053   17.58569315787816
H         7.27615884317611    9.58892941681116   17.08613151792254
C         7.50406489979899    8.57685416932568   18.95844094245195
C         7.71347490550726    9.82812590031043   19.75515628305048
H         7.22082292057750    9.75563063673525   20.72260948342916
H         7.33138331189787   10.69823379281128   19.22601826655618
H         8.77836595309068    9.97981108928612   19.93502927258527
C         7.52769556962714    7.33283543250811   19.58086897464480
H         7.68182072461164    7.27037573007483   20.64823751162884
C         7.34262252189531    6.17699447816530   18.85100282174481
H         7.34490587723795    5.21580103271807   19.35020050508581
P         5.77039783186347    0.57266915966319   16.89459084128535
C         7.29732345677025   -0.33666991608979   17.30164240822061
C         7.81851629602345   -0.15854053670746   18.58301073288345
H         7.30277553563720    0.48012053780193   19.28938250987995
C         8.99592919302416   -0.77786846822964   18.94812245338145
H         9.38899203646853   -0.63131185316495   19.94368912155019
C         9.68982262840272   -1.57643265250717   18.04390042061634
C        10.96659886305854   -2.24550540559387   18.45175293526308
H        11.60593962086261   -1.55260777835655   18.99577349529469
H        11.50688338742151   -2.62044446858589   17.58555329329221
H        10.75234876936786   -3.08643846494442   19.11177421092997
C         9.17013542474787   -1.73968279847854   16.76614589280370
H         9.69992879750404   -2.35180356328481   16.04888156902575
C         7.98735630400633   -1.12802913794633   16.39180177595562
H         7.60825193758249   -1.26282759581651   15.38857608336384
C         4.46629966828179   -0.56844559086738   17.45003077934781
C         3.18723732950029   -0.41925188080398   16.91878229776525
H         3.00751837254176    0.31571233452190   16.14400249600228
C         2.14786403063000   -1.20848443956288   17.36743400272749
H         1.16471248478048   -1.08886400737534   16.93488850432619
C         2.34935069823609   -2.14271047147008   18.37561383963306
C         1.23028033398772   -3.00887650481213   18.86645234242486
H         0.28008681613296   -2.69153602939922   18.44541504939542
H         1.16648098786761   -2.96924639890778   19.95251737251080
H         1.40510350703687   -4.04708509831908   18.58311919194418
C         3.62198927691122   -2.26725360612026   18.92139406100915
H         3.79155179862504   -2.98294206946136   19.71360093243667
C         4.67158565010975   -1.49196388195047   18.46925108649307
H         5.65256620551938   -1.60243378921921   18.90902627640920
C         5.69774476764812    0.37981354318195   15.08296421845869
C         6.18835456290938    1.43108170084788   14.31692845412780
H         6.59590217047994    2.30388805013787   14.81402877652766
C         6.14206674256150    1.38117780728257   12.93725254594222
H         6.51672046015280    2.21551192261601   12.36145921770522
C         5.60360985952081    0.27693218078045   12.28980435773689
C         5.53614238187339    0.20916530542942   10.79446982609295
H         4.52131852260152   -0.01305906550364   10.46685587722492
H         6.18443859599559   -0.58442674213288   10.42335201655834
H         5.85150845825272    1.14874577100332   10.34731593563097
C         5.12351454591393   -0.77878613291684   13.06000297690112
H         4.70730389557582   -1.64656154760922   12.56703545296769
C         5.16685195151930   -0.73436900668779   14.43937351495574
H         4.78515251257926   -1.56245737615678   15.02032039010907
P         3.05259321785267    3.60618718880821   17.39545044786948
C         2.54328273585283    5.14619948435679   18.22747110404498
C         0.92102836041890    6.62070740318483   19.20632719566282
H        -0.10373975371256    6.83163907904872   19.47985747070945
C         1.91090022021872    7.55402307825650   19.49992720975656
C         1.55745572640877    8.84839786190494   20.16543376752659
H         1.15164501299439    9.54679320053138   19.43233453517318
H         2.43442702895463    9.30295628521130   20.61925285126119
H         0.80188745095549    8.69365633123679   20.93287843602687
C         3.22481519936718    7.26061165746142   19.15763012043643
H         4.01383099612785    7.96213716546605   19.38949284869998
C         3.53713780949581    6.06839893664133   18.53455414034676
H         4.57053537478068    5.84028468093135   18.29908092998672
C         1.76281347491984    2.46428862940851   17.98461613766838
C         1.97187355171964    1.88971303490375   19.23542907139600
H         2.87667093214004    2.11947839963432   19.78469085287233
C         1.03497045407162    1.03213835312529   19.77396961070538
H         1.20824913235225    0.59440667926703   20.74627993885539
C        -0.12822282325831    0.72468083451161   19.07730061966289
C        -1.16714814731613   -0.17245570918591   19.67734831568211
H        -1.91467517546738    0.42575810832803   20.20023516389196
H        -0.72109751781578   -0.85537497500649   20.39587011840584
H        -1.67971730738788   -0.74728685386755   18.90851662564220
C        -0.31966644281381    1.28505662905646   17.81970444977489
H        -1.21567319449353    1.04716224899108   17.26172512627405
C         0.61391034440077    2.14415090152587   17.27108600872373
H         0.44864939002168    2.56552494306130   16.28847669383133
C         2.54073132436853    3.89641409578122   15.66880594309113
C         3.12801756971787    3.07890900979749   14.70875098557812
H         3.85243745304726    2.33654650193957   15.01782508373911
C         2.80752455749628    3.21185447646242   13.37410459705688
H         3.27799454960758    2.56682486348225   12.64515261439690
C         1.89122899898913    4.17280803763510   12.96244200451427
C         1.32082622858524    5.00117825423319   13.92211909079295
H         0.61303696847949    5.75979855202883   13.61564745196713
C         1.64105338555346    4.87392798431335   15.26112560042569
H         1.19223932885092    5.53582774089516   15.98866105711322
C         1.22656397760361    5.42830138069044   18.58029511584812
H         0.44588635374250    4.70788521132655   18.37566568797234
C         4.72060889024286    6.32435173139789   11.16708486499490
H         3.66701409888243    6.57970751097353   11.24273359306552
H         4.84226200214467    5.53161646900533   10.43126723144880
H         5.25918140589530    7.20028452460236   10.80321423132089
C         1.51413149867773    4.29584037666400   11.51787668457023
H         2.36439375740193    4.07324117009285   10.87737915892011
H         1.14828302527057    5.29480438771611   11.29140903282220
H         0.72078480739592    3.58585160078603   11.28011665061136

