84
CSD_code = COQKOJ | q = 0 | S = 0 | Stoichiometry = C37H39ClN4OSiZr | MND = 11
Zr        6.63451336918461    0.05765858055669    2.87560705133937
Si        6.76600718795958   -0.33994848193953    5.92301527152530
Cl        5.73796056501685    1.50985990310881    1.17912778880852
N         8.35843225939349    1.58794182215271    3.03118184814608
N         7.84016449040157    0.30899656543840    4.74736625496615
N         5.77735765718954   -0.94701060745379    4.65496803394126
N         4.47369980318970   -0.83673609908823    2.88613175912339
C         9.29042150414103    2.29625960222759    2.28263471383275
C         8.87541634682832    2.97484988407994    1.13029454783466
H         7.82877463067448    2.96189403456213    0.85745506173181
C         9.79491523572820    3.63949739067224    0.34309533295312
H         9.45780297769749    4.16095004090347   -0.54097314505237
C        11.14051496540016    3.64060309336433    0.67508759462192
H        11.85482890976099    4.16297801529955    0.05659164127160
C        11.56427602143865    2.94966716834392    1.79857767630853
H        12.61398547524377    2.92563868554795    2.05472645369532
C        10.65627059522657    2.27911845317014    2.59278461982266
H        10.99584826096715    1.72178764785192    3.45509995233411
C         8.48053012477449    1.37410878555738    4.34379492406438
C         9.20532244663027    2.26488371382623    5.28203723630574
C         9.31684376889373    3.63558096554277    5.05750926947063
H         8.90267753433390    4.07035892564222    4.15967502452854
C         9.95950349993638    4.43997421597104    5.98021717834344
H        10.04207469037137    5.50133511696614    5.79807272758629
C        10.49895435010505    3.89078609263278    7.13227453341496
H        11.00477905153454    4.52251831998236    7.84733631618933
C        10.38862793431001    2.52942046563167    7.36331634490756
H        10.80911911565010    2.09731467312864    8.25963569197378
C         9.74217918949445    1.72211414367191    6.44635766243750
H         9.65154175463124    0.65904548443290    6.61108625159090
C         7.58162898644861   -1.73125640254608    6.94245451784193
H         8.34842282459469   -1.33541487904636    7.59973566061123
H         8.04469740492882   -2.47534244767972    6.30331414784355
H         6.85099193973159   -2.23522588369918    7.56601418232004
C         5.94282057417206    0.89466454091736    7.13750498580459
H         6.59123840867968    1.08867751157606    7.98531688634572
H         5.00843398758518    0.49666548718777    7.52146590971748
H         5.73256696684163    1.84609679532808    6.66102721014583
C         4.57162735006592   -1.12956649706834    4.18149660735165
C         3.44209251396484   -1.55951156853949    5.04259520309797
C         3.69572683941310   -2.40832626996353    6.11628408402913
H         4.70292505407051   -2.76677743825313    6.26713757081236
C         2.67155176120430   -2.79182854692881    6.96199715935903
H         2.87547436635776   -3.45824431537935    7.78730613412601
C         1.38522020429973   -2.32296344250414    6.75104307818731
H         0.58474948919525   -2.62204906635249    7.41132579071540
C         1.12754954477689   -1.46929817817602    5.69049402390598
H         0.12641873335216   -1.09949314751328    5.52544078205826
C         2.14695409175343   -1.08845289488574    4.83776454775698
H         1.94081988148875   -0.42493922993599    4.01064221237537
C         3.46604124250002   -1.33811864290928    2.06907463425004
C         2.94385766880275   -2.62574301317629    2.24169702505063
H         3.31346003573857   -3.24405427695917    3.04841223622844
C         1.97974173744119   -3.11235254298439    1.38189711620519
H         1.58835795088379   -4.10873457060754    1.53074225884994
C         1.52098903121762   -2.33770939775853    0.32913323769142
H         0.76743273655914   -2.72305554092625   -0.34128023381691
C         2.05021751891256   -1.07172356693084    0.13439520480594
H         1.71009575341841   -0.46706155345558   -0.69379879251095
C         3.01344715948176   -0.57255781842315    0.98854877627601
H         3.43854799269757    0.40751599218010    0.82320289479548
C         7.99156019040816   -2.11828890639625    2.78181493818177
H         8.30739394371550   -2.67577165552748    3.65316211008717
C         6.81370962083970   -2.34293235906032    2.04190399308504
H         6.08100979677542   -3.11762600111736    2.23339965588652
C         6.83378510278093   -1.48857352147201    0.91764173019372
H         6.11045352498217   -1.48325237439383    0.10897705325710
C         8.03250237072083   -0.73980245929604    0.96237236260245
H         8.38811554394954   -0.06231364638974    0.19308361445167
C         8.74865352139990   -1.13600008735173    2.11365118867669
H         9.75334633321328   -0.82353373878711    2.37186776460958
C         5.95280988293975    3.23321019693055    3.84857965353113
H         6.71826171568793    3.24609550632689    3.06850576856723
H         6.37812709232992    3.58468024896795    4.80039083749088
C         4.72399932444860    4.04505069866110    3.45830945577964
H         4.83236995939328    5.10056767323791    3.69444079756694
H         4.53631936864073    3.91977644442906    2.39153078620399
C         3.64084604272086    3.34487453905638    4.26827053002573
H         2.63725054413470    3.52328425460736    3.89135968980923
H         3.68721766443384    3.64722840037502    5.31596335066453
C         4.06112128683194    1.88788614231664    4.10340827615276
H         3.75375784044494    1.25574512795020    4.94200640301341
H         3.66506564465705    1.48496288755743    3.16086472652820
O         5.50278021785882    1.87336683300229    4.03062464339218

