92
CSD_code = COQLEA | q = 0 | S = 0 | Stoichiometry = C42H44N4SiTi | MND = 12
Ti        2.27287367150514    1.33212684874692   12.24936570305182
Si        0.25327704020288    3.32496707004004   12.42524796224230
N         2.42426117989968    2.28783099084974    9.28660979678670
N         1.39175484252763    2.75828751220567   11.23736398408154
N         0.93424749177626    2.09912417116590   13.45568967470994
N         1.58320878997495    0.91122719641691   15.26171935176235
C         2.82808566618977    2.56993197787969    7.98527916487991
C         2.56143591733548    1.64099405807908    6.96467443010763
C         3.04638210968061    1.86058983075124    5.68676433456915
H         2.82249245363481    1.14195122064541    4.91044466613391
C         3.80288285114918    2.97970043359992    5.39196672990677
H         4.17580594196577    3.14034764503095    4.39138826896922
C         4.07351794557561    3.88954739906332    6.39468940358007
H         4.66431880602495    4.76918713502905    6.17914149919895
C         3.59797396138813    3.70683928055431    7.68475810237881
C         1.73898204355458    0.41388823895255    7.23235986988603
H         1.07419874714790    0.57178817490767    8.07653926166313
H         2.38507389082987   -0.43336415128660    7.46513260873650
H         1.14953552663823    0.15156781797942    6.35521193625302
C         3.94116458119444    4.73920930481616    8.72038713857723
H         4.99338058135802    5.01128833628683    8.64443079118681
H         3.74439553136796    4.37246981847243    9.72357979271327
H         3.34808994272413    5.64107465882357    8.56136618084366
C         1.59889910187996    3.03018254688321    9.94846400005850
C         0.82830893313017    4.13984595497869    9.31765296315240
C         0.05414883131147    3.89276951614609    8.18985992207921
H         0.01069755613942    2.89600721668675    7.77747246607868
C        -0.66230920331928    4.91770435202826    7.59847320553950
H        -1.26382303915875    4.71684013685181    6.72423830778391
C        -0.60582676798252    6.19854994771737    8.12143666518958
H        -1.16284306590105    6.99861618694519    7.65662910992234
C         0.17246126641322    6.45216877981236    9.23863188257271
H         0.22646573069667    7.45263794101227    9.64332339918635
C         0.88571651842001    5.42817567570973    9.83468656493916
H         1.50685662540166    5.62519408186692   10.69468321296967
C         0.45690873519969    5.06223455855666   13.21283848973138
H        -0.00914419560484    5.83421961522558   12.61059315394763
H         1.50140892496023    5.32511827834100   13.35754979194151
H        -0.02042152792178    5.07512199257031   14.18827350947560
C        -1.54344699807527    3.15657014633291   11.77445749142241
H        -2.26595047188901    3.55304622696424   12.47907548254005
H        -1.80513518511876    2.12369133154763   11.56067048846771
H        -1.64698282228996    3.71670516942304   10.84967527041245
C         0.77744820712457    1.77652693254450   14.74011265459599
C        -0.28326648277195    2.46841268803637   15.52711089781319
C         0.04997302034808    3.15085141908671   16.69134739856513
H         1.07813764620002    3.18125910520845   17.01911805164092
C        -0.92968950269294    3.79360152633749   17.42669548057345
H        -0.66212934437999    4.32477578420765   18.32821390871433
C        -2.25021686269652    3.75352097340576   17.01221633307124
H        -3.01465009712825    4.25225361053351   17.58960858597910
C        -2.58906503994132    3.06586096704820   15.85876004128763
H        -3.62009899761743    3.02371718281803   15.53808972367069
C        -1.61072769974068    2.42697593368674   15.11893637134217
H        -1.87296817663254    1.87588753775790   14.22910470115245
C         1.42102914695044    0.39372348548109   16.54319253219365
C         2.43218429157432    0.59278155317537   17.49892287419463
C         2.33033464823903    0.00012378612949   18.74587350405470
H         3.11087816372973    0.17315837958423   19.47391882653755
C         1.25079624684590   -0.80031234475618   19.07060838816601
H         1.18238222043550   -1.25763009028584   20.04644671688283
C         0.26130095306564   -1.00620040556961   18.12977226406258
H        -0.58805047251679   -1.63112670329994   18.36924882762057
C         0.32482248884741   -0.42165138343873   16.87363674262106
C         3.62209719904854    1.45640734048282   17.19555507766583
H         3.37689494961539    2.20153874310565   16.44441332954144
H         4.44376263388487    0.84995153914907   16.81291985740138
H         3.96963186261587    1.95705937179114   18.09771001064911
C        -0.78864938395177   -0.69804495655673   15.90425570436845
H        -1.67832488415268   -0.13169223632333   16.18371908515373
H        -1.04562173933878   -1.75667862765927   15.91988894383097
H        -0.50898199624270   -0.41874335518920   14.89269103429796
C         0.93738330575984    0.00425966864429   10.89496273650660
H         0.31169387014300    0.39135135830764   10.10148273012804
C         2.27322300783185   -0.44300069920318   10.77483037030426
H         2.86037488954546   -0.44550644831312    9.86669986330718
C         2.63355724593748   -1.04158352591234   12.00169355804097
H         3.53753828828432   -1.60364251365202   12.19523430864944
C         1.54509626363081   -0.93995768319283   12.88326088737809
H         1.49464539569581   -1.37528355625257   13.87030694246001
C         0.49264784666689   -0.30311845722529   12.19794193753178
H        -0.51899903107893   -0.16908731267093   12.55977368859430
C         4.47598658953685    2.15173487276873   11.48632784849993
H         4.82314880874372    2.29798701849501   10.47422568896077
C         4.66361164739930    0.99064861998946   12.25351779658797
H         5.21435491754950    0.11691428032762   11.93127268874914
C         4.17106949558942    1.22963048070084   13.55498906936705
H         4.25837298221181    0.56399373225215   14.40283680715071
C         3.70299932213394    2.56320895082780   13.59530007206773
H         3.38187898116188    3.10885942998253   14.47277389444359
C         3.89148401866016    3.12766393506333   12.31620890545272
H         3.71757069594388    4.16524546798958   12.06017630854845

