75
CSD_code = COQMON | q = 0 | S = 0 | Stoichiometry = C33H35N3NiO3 | MND = 4
Ni        5.63184977135917   -8.67497807237731   14.58175480521683
O         5.38230313289669   -7.33576017485960   13.34196513091967
O         5.10150730953504   -6.97049461521406   11.18155342035857
O         4.87077926983075  -10.61032677246521   17.86730289150762
N         6.17118800231163   -9.75631528105164   13.13801746099720
N         5.80555699682591  -10.01354848990922   15.84477068954247
N         5.02434965217744   -7.48227046784773   16.06717453073010
C         5.34271615837409   -7.70033519795881   12.12080017361584
C         5.60942746160620   -9.22812798117785   11.88098105740346
C         6.48539723593844   -9.34289211571524   10.63553259955267
H         7.52820518627881   -9.15373980691891   10.87699748138830
H         6.15175533637724   -8.56161523412347    9.95199356475537
H         6.39049047149362  -10.30275123464816   10.13607776025576
C         4.23540191680147   -9.88058212026790   11.62187098595317
H         3.85613828572926   -9.48272216982957   10.67870478136279
H         4.37452129034245  -10.95779526910296   11.50438129632066
C         3.23079000896741   -9.59905718899594   12.73932244905791
H         2.85965599278158   -8.57737584454169   12.62901100753575
H         3.73244217574782   -9.68321242729843   13.72604090081602
C         2.05004470325030  -10.57402903753273   12.72521517327182
H         1.55748598945105  -10.52312315210595   11.75059857251688
H         2.41630541807470  -11.59211900217920   12.87387432131284
C         1.07248332044091  -10.22469612038583   13.80258123063560
H         0.51098274013917   -9.31314241368135   13.64184229207715
C         0.90157087754247  -10.92433475769123   14.90862453199369
H         1.45132192229378  -11.83268189930744   15.09610857465384
H         0.20029662105441  -10.62868637617992   15.67043122410831
C         6.79500838992672  -10.88071230180665   13.23381785299413
C         7.04870896118554  -11.79018859510117   12.07978894058426
C         8.22792376982322  -11.72665214228686   11.34330437628759
H         8.96725600803644  -10.97580299331274   11.58078820143377
C         8.45247108198697  -12.61890948434052   10.31111626082737
H         9.36708609139350  -12.55736901274178    9.74064657122517
C         7.51060959026151  -13.58980229535942   10.01192446350892
H         7.68547448214966  -14.28171905534407    9.20204685728718
C         6.35309041619943  -13.68026653957313   10.76481577923193
H         5.62492680208761  -14.44807861775788   10.55019803343576
C         6.12742953726498  -12.79309556263220   11.80341804911723
H         5.23945315859423  -12.88615478671160   12.41184232530419
C         7.26609495229201  -11.41967723445249   14.50246293313175
C         6.73331274043077  -11.02134853429036   15.75808629836478
C         7.23633129943893  -11.65345778217618   16.91013561821614
H         6.83589630740488  -11.37275281159311   17.86880049205569
C         8.21938125220426  -12.60835437543446   16.84865817706796
H         8.58335643887796  -13.05758495157792   17.76067791671240
C         8.74816684339606  -12.99008181255193   15.62122085805476
H         9.52616136787398  -13.73584786115368   15.56447400523198
C         8.26466497529119  -12.40706115039547   14.47648773660372
H         8.68356441191906  -12.70661186068725   13.52866838922839
C         5.08179560164234   -9.80817077515519   16.97374138977474
C         4.44929925396106   -8.41768418600988   17.05197305847552
H         4.61536580367452   -8.04288287245321   18.07262364343762
C         2.93417939468110   -8.47278424398051   16.76439930486478
H         2.64484801503320   -9.44758738893096   16.37065066156305
H         2.37318229185819   -8.30840295078251   17.68302391893096
C         2.68569775207961   -7.36051159751400   15.73878406956290
H         2.57989329910501   -7.78033056030447   14.74016943598426
H         1.79348228407216   -6.77981785078299   15.96453968079191
C         3.94708715284996   -6.51339399756323   15.81002930224670
H         4.14480639424773   -5.96513315772977   14.88903642124046
H         3.88723564865851   -5.80968885091654   16.65190089394340
C         6.21790849731126   -6.77494205022536   16.57297887694281
H         6.37954589025496   -5.91256612933756   15.91933434906242
H         6.02865764173092   -6.41603862357624   17.59501833943303
C         7.44095831682952   -7.65477755874067   16.53866351584177
C         7.92038596343223   -8.28276835445496   17.67920899433778
H         7.43304208926105   -8.11957855516098   18.62996234327545
C         9.01906806924693   -9.12303995874521   17.60603652546607
H         9.38414186360314   -9.60639282566073   18.49957640511127
C         9.64357061921890   -9.34900704676001   16.39235511833963
H        10.49284233643011  -10.01309823037561   16.33748117197919
C         9.17910700006789   -8.71949996194221   15.24922798541835
H         9.67853232312562   -8.87981047080149   14.30500330743553
C         8.08457442355343   -7.87121424735683   15.31611169838103
H         7.77425594839699   -7.31213457004770   14.43506054440143

