48
CSD_code = COQNAZ | q = 0 | S = 0 | Stoichiometry = C20H20NO6Re | MND = 6
Re        2.71927938179462    8.83080835093561    4.07573407919324
O         2.56000544071380    7.18916695414109    1.44677216650977
O        -0.03864295078427    7.88789660332113    5.16655262419534
O         1.75665116133769   11.58235710324569    2.97573599060147
O         3.77947773202448    9.81419835287865    6.81889936280718
O         6.99999056179530    6.22283907047313    3.30970115049648
O         6.70218714388070    6.44108912033917    5.53205261458512
N         5.82560884823714    9.61054504358127    3.12513157807616
C         3.93869992782564    7.07813696573462    4.65743304420058
C         5.15396678788185    7.49849039349523    4.16563051548397
C         4.91445230977005    8.79776695011958    3.59319190724132
C         2.53627880608750    7.84153164878038    2.38201016907791
C         0.95320058252219    8.27688338576616    4.75137733562188
C         2.09393699248156   10.56365204017770    3.38089563895968
C         3.31372883300560    9.51682079254809    5.81792941118438
C         3.72879891762560    5.79862777586363    5.30398738030222
C         2.95323638973869    5.72194865642329    6.46400443341085
H         2.52621862802738    6.62960629287235    6.86990032683478
C         2.75612081334983    4.51221669686982    7.09780750865497
H         2.17118176877273    4.46983664225938    8.00483442862668
C         3.29228453714053    3.35082906445082    6.56339762111332
H         3.12645763690081    2.40212369667353    7.05211921479613
C         4.03083515889997    3.40810038678026    5.39210989460986
H         4.43586660050666    2.50256277787178    4.96307441968470
C         4.25786149412209    4.62011145343144    4.76929175662276
H         4.82084077770379    4.65699023521006    3.84739972838726
C         6.38998772069168    6.67271404057222    4.25176725680631
C         7.75905329200081    5.52337895660930    5.81461868752982
H         8.64114084860132    6.10729427290332    6.10094274154350
H         7.98689687267087    4.96079573589157    4.90273558681100
C         7.32924063046671    4.60293771199807    6.94366489612399
H         8.13651680787209    3.91548207425782    7.17975229536402
H         6.44854708916523    4.03544645897878    6.65237268946985
H         7.08634945760647    5.18627646481712    7.82792877273692
C         5.43291925023557   10.90638274578597    2.58824018379041
H         4.43777197257225   10.81229250302030    2.14569379387128
H         6.13909050171766   11.18382492452120    1.80278201585448
C         5.40491112681242   11.97494358235546    3.67657509340264
H         5.09509358436962   12.92475932446116    3.25058331753371
H         6.38506122589705   12.10060205001078    4.13151943880181
H         4.69352536853175   11.69548752518392    4.45171301300495
C         7.26119535438561    9.36873511145812    3.12184030451726
H         7.51272403164450    8.69122444073295    3.93931404302102
H         7.75800528249000   10.32470482060624    3.31060331045957
C         7.73515808351548    8.78294156605909    1.79624881528427
H         7.42105005521369    9.40452293343200    0.96069889202838
H         7.33244249717401    7.78226374258093    1.66581310838407
H         8.81979466502583    8.71855255949757    1.79401744236304

