61
CSD_code = COQQUV | q = 1 | S = 0 | Stoichiometry = C24H26AgN8O2(1+) | MND = 4
Ag        3.69781555433535    8.16346598467443    8.59206323048148
C         4.96206489676359    9.69453752585732    5.81936332054229
H         5.40197281020571   10.21315069239649    4.95999300385605
C         1.75491313837677    7.13596657504946   11.19603245464037
H         1.11532182491470    6.77763323682513   12.01118776260102
C         7.11169447046939    8.41733228361434    5.81301994943132
H         7.60401661029901    9.07891127736622    5.12990259484450
C         7.55523075202652    7.27824631948529    6.43828335283975
H         8.51874502006737    6.82114843709133    6.35749186787675
C         6.46659570143240    6.84726198974057    7.20376663920864
H         6.38784531410943    5.98439902176308    7.83569702692875
C         5.23620197205517   11.94910684117763    6.85930820109091
H         5.68176618959420   12.38694736917217    5.98961631340084
C         4.94367719610320   12.49041320921086    8.08793633116320
H         5.12063944126805   13.49156036807582    8.41961727119734
C         4.36627981846707   11.44156560573934    8.80766411326655
H         3.99831979962838   11.43927529937389    9.81466582263203
C         3.57049906173170    6.01254878992974   12.50823708406629
H         2.90523018768963    5.55973281628056   13.21463242721815
C         4.93868568870253    5.96115223794936   12.40167534327926
H         5.62340409404217    5.43249236818066   13.03027895276589
C         5.23772260235167    6.75296826149040   11.28798564129598
H         6.19485654885517    6.98263497297557   10.86301132908998
C         0.46565796877563    5.43001333235498    9.90658554573219
H        -0.04770420152545    5.04909468027912   10.76578458576714
C         0.39854223406373    5.06103372346889    8.58461774441666
H        -0.19941801737940    4.28743057510870    8.15141466123020
C         1.28761686494973    5.92025115496962    7.93286024000991
H         1.53656687534302    5.96439465112519    6.89042585831508
C         3.57386920444898    9.16749201634570    5.41355188821188
H         3.70085374373605    8.36582340370186    4.67168177292066
H         3.08055976512362    8.74998059735188    6.30807407563738
C         1.46176079122833   10.23598700571816    5.17959968075620
H         1.01917862298920    9.25957396812882    4.94669414651266
H         1.03425465009359   10.98577503107074    4.50943341368987
C         1.20086993733018   10.61698368641067    6.61610396601704
C         0.62311329844567    9.72259683981882    7.50941388198328
H         0.31472878316401    8.74403797890712    7.16574675916187
C         0.36385418986606   10.10272304111665    8.82136157386591
C         0.72971536199411   11.37373107206233    9.24784231783996
H         0.52737466021333   11.66432667593261   10.26778171533925
C         1.33204865444870   12.25726038777304    8.37024145264690
H         1.60592148199345   13.24603415436977    8.70458575410634
C         1.55910178451172   11.88487783749519    7.05782638800847
H         2.01170411201025   12.57670111065155    6.36348127677317
C        -0.33957673299362    9.16860487215838    9.77489466897442
H        -1.34185257891777    9.55181013367649    9.98971707332213
H        -0.44512318668029    8.17398341799311    9.32487034722726
C         1.60232466526425    8.67530158940556   11.08637105468320
H         2.04178611069166    9.10917881888072   11.98984344821135
H         2.17114337364426    9.03052271008542   10.20791054013954
N         5.43589650251615    7.65977282523202    7.05161991613084
N         5.83394191384576    8.61511651174456    6.20238380310160
N         4.30739679698970   10.34645833163622    8.06975549899343
N         4.84180929789883   10.66174622761786    6.88606253874784
N         4.13525413979025    7.25346145269159   10.76017208510444
N         3.12192921567866    6.79978359155256   11.50765089286609
N         1.84758933365371    6.75449046933925    8.79257749390203
N         1.34063844159314    6.45301920560741    9.99278943564080
O         2.84902979783580   10.23592733594885    4.86777951069095
O         0.27314344986641    9.09374809884972   11.05546295962726

