61
CSD_code = COQRAC | q = 1 | S = 0 | Stoichiometry = C24H26AgN8O2(1+) | MND = 4
Ag        7.18717155354225   17.42709867381160    3.68481305261306
C         6.10853598147489   19.62726365550583    6.03895674330081
H         5.75346404193384   20.36393545636225    6.76858480457099
C         9.33522157550619   15.34845056385991    2.05940882520836
H        10.01960419508624   14.64619576260205    1.57014763067545
C         3.94335339729963   18.48511676187895    6.55691379523804
H         3.54603028119430   19.30244197108081    7.12329075122054
C         3.40909080524471   17.25649229845995    6.25596165079387
H         2.45359293394562   16.87129138883897    6.54263154958285
C         4.39315292867424   16.62003073408005    5.49173547279067
H         4.38007161112661   15.63842173935864    5.06068217133628
C         5.78330379529585   21.54830376237065    4.47806719844180
H         5.38402550654148   22.19744561724610    5.23037293687218
C         6.00544469928318   21.75675625250534    3.13828116508675
H         5.80609422786727   22.64243473485921    2.57302212388535
C         6.54635388891489   20.55334065532924    2.67886224620493
H         6.86021579498732   20.29177800717286    1.68760535918199
C         7.58701609671466   14.01373709029036    0.86615358673305
H         8.27191538228006   13.27161162896349    0.51000336826760
C         6.22992805808769   14.13810089494057    0.69681339914232
H         5.57643924789203   13.48766583855737    0.15514590917597
C         5.89201262757880   15.30537685054767    1.38957296638654
H         4.93061327425348   15.76643245583262    1.50338743258063
C        10.14813190111606   14.15692260363302    4.09407532507474
H        10.68048948685514   13.40841888192214    3.54379046764927
C        10.01163844193598   14.34661161998553    5.44783498012441
H        10.42432268806082   13.75333543468848    6.23616371340663
C         9.21372147958091   15.48787846337459    5.56448585879856
H         8.86804800089211   15.97604401849448    6.45472524489815
C         7.49935454657620   19.13509076583423    6.47874082887418
H         7.38374937544213   18.52494520131532    7.38662446658617
H         7.92037007930874   18.50533766814321    5.67617415553930
C         9.66238646606261   20.10913151177441    6.35519137585441
H        10.06977389854663   19.16487863449082    6.73667562043901
H        10.17355209444912   20.93826530167236    6.85240424464425
C         9.85657526984583   20.21535966132131    4.86225462352619
C        10.49467696796653   19.21891350602259    4.13749640942127
H        10.86526361942942   18.33324401206746    4.63489197696959
C        10.71977810603662   19.37117844716071    2.77221373937819
C        10.25571563061690   20.50921248901162    2.12849234807887
H        10.42476497662674   20.63368696167157    1.06897627237507
C         9.60062192539087   21.49784318877847    2.84392804445381
H         9.25422722803072   22.38673938086079    2.33948886263031
C         9.41087546522818   21.35729874228170    4.20500271368230
H         8.92121808485861   22.13387374868342    4.77332726804099
C        11.49569167535282   18.31856566845558    2.01758033333178
H        11.50051529207079   18.54921751091071    0.94331482109284
H        12.52898885514438   18.29317279573604    2.37503351308129
C         9.74035943509079   16.78500800913204    1.69701169114455
H         9.73526385446638   16.90064182252735    0.60229035638016
H         9.00380856494615   17.49158844540410    2.12863674839067
N         5.44889486843102   17.39971400971048    5.34405275382040
N         5.16970619934670   18.53582773487318    5.99462092273679
N         6.64973367275461   19.68116134889329    3.66646132112512
N         6.18202118641693   20.29277049848944    4.75922309329647
N         6.96382208760455   15.85256405897137    1.93386640871444
N         7.99496380721387   15.06248211967654    1.61193384505404
N         8.89332901737734   15.95941593140845    4.37137971292336
N         9.46218607637037   15.14177476246701    3.48176148049022
O         8.30180737783507   20.25393393046665    6.73906327240758
O        11.01770039199819   17.00032831523630    2.22599704627420

