39
CSD_code = COQSAF | q = 0 | S = 0 | Stoichiometry = C19H12BrMnN2O4 | MND = 6
Br       -3.28680937260952    3.15907350834755   13.29975197166817
N        -2.53614523564980    5.23520873286714   11.15918568570523
O         2.05901887336204   -0.14231763551964   12.29923337141104
C        -3.11812102312559    6.42031776364994   11.34171238562419
H        -4.19063437360848    6.46415256245920   11.19853955508005
Mn       -3.47620101149025    3.47365752083408   10.84687048314584
C        -2.42397608850087    7.55858315675749   11.70552167740670
H        -2.95274355896126    8.48686302086918   11.84802307024419
C        -0.64286236182008    3.81192201779264   11.10652376399446
O        -4.70568952240304    0.81457764529635   10.67757604995493
C        -1.05158958587160    7.47457688692288   11.88941960871632
H        -0.47639495420669    8.33925294774513   12.18185079162590
N        -1.54903526317289    2.87264237785321   10.76744036417451
O        -6.22325691450397    4.41562277816943   11.26619303750382
H         2.47928907394173   -0.86119639636568   12.78734715667557
C         1.16660446770405    2.21717833710124   11.03437366540442
C        -0.43608309859971    6.25448879953560   11.69254190233580
H         0.62806861316986    6.15922085665162   11.83100694888349
O        -3.66989427131911    3.87312331254561    7.95571586946059
C         3.56232582106796    2.77146172470621   10.71870794996597
H         3.25124547961472    3.67066787177500   10.20745054548160
C         0.21539101308089    1.26231906387879   10.67181021938159
H         0.50194872358092    0.24122398136284   10.48711162904012
C         2.58836234073003    1.89409244646994   11.18883567036224
C        -1.20154656333839    5.14763144111338   11.32770180636182
C         4.90833930536019    2.49741732851935   10.86356230134263
H         5.64473924977827    3.18731474328487   10.48210852052237
C         5.30510090081378    1.33484514298936   11.50252924655776
H         6.35359528297280    1.11297666304524   11.62911078859477
C        -1.10738615231491    1.63303764805764   10.55247103176402
H        -1.84884538895652    0.89388180806561   10.27569553641336
C         0.70806279023239    3.51385240299349   11.24307683445496
H         1.40491012465092    4.27872750998758   11.54393066178030
C        -4.19402515052935    1.84173480417704   10.72944344127809
C        -5.13692921353826    4.08318793699659   11.09533800493171
C         2.99934173490623    0.71198990712194   11.82513288768422
C         4.35591466343034    0.45224162776253   11.98191182102895
H         4.66282182871014   -0.45493431220264   12.48571991840949
C        -3.57581118259472    3.72128206638703    9.09302382562291

