49
CSD_code = COQTEH | q = 0 | S = 0 | Stoichiometry = C24H24Zr | MND = 12
Zr        8.36801761203197    1.96555033857146   13.25889036039916
C         9.74982464173147    1.89858635614943   11.47349779732350
C        11.12409713101247    2.30104702459508   11.80649741440168
C        12.14012697179885    1.34965375813718   11.97623502840922
C        13.42242364025972    1.71888047218461   12.33168605925257
C        13.74123715485778    3.05459895825637   12.51413267866679
C        12.76282434088909    4.01653489895814   12.31370207583611
C        11.47912532642533    3.64995453596042   11.96118753498376
C         8.30149213368657    4.21165642938279   13.21110490952651
C         6.96703195558836    4.60160099468897   13.69379015723939
C         6.60385243426405    4.49189566560906   15.04713265628876
C         5.33368191236452    4.82317423441016   15.47840755239553
C         4.37928737879143    5.27713157655692   14.58111775159481
C         4.72282535020322    5.42082476884246   13.24636273203276
C         5.99364907661238    5.09897548380322   12.81307563177021
C         8.39578863042187    1.34656475210394   15.73253993772091
C         8.84518713467642    0.20184149455801   15.04118464922410
C        10.07472804472983    0.51175584854728   14.42788208364856
C        10.40797758563482    1.84276563516434   14.76920257868542
C         9.37177821200181    2.35499146499177   15.57475512257198
C         5.85644476058354    1.76364704583500   13.16171524546421
C         6.28562836327367    0.47840659977238   13.54228072116775
C         7.00217964007813   -0.08541235663620   12.46688254998886
C         6.98195211923142    0.83842975500249   11.40291498333325
C         6.28904545012137    1.98822296700194   11.83265922255089
H         9.75810020937470    0.87421170579957   11.06552768918395
H         9.32325828352380    2.58443299870460   10.72138854593729
H        11.91547488897652    0.30268360531825   11.81119194514391
H        14.18300705571848    0.96142241292243   12.45876045156863
H        14.74309693659582    3.34472605193467   12.79282651641437
H        13.00804253041340    5.06313481336470   12.42911097461307
H        10.73538460051642    4.41729805410953   11.78490244884100
H         9.08915062659188    4.58728824335477   13.88329553306141
H         8.46089208291832    4.63034014581805   12.20593966059319
H         7.33804819288474    4.16353232447475   15.77409920555846
H         5.08379070141411    4.72971204944183   16.52596721680239
H         3.38644071500813    5.53071425398983   14.92081903322706
H         3.99529328815820    5.79716939070694   12.54128552882884
H         6.25269143452534    5.24339933283569   11.77113127283828
H         7.53559495708718    1.39475406161272   16.39137636031036
H         8.39886566104331   -0.78405134746737   15.08628644199414
H        10.72560670617097   -0.19422141453571   13.92798899260529
H        11.35093625407771    2.33407877101985   14.57031085594153
H         9.41406970530410    3.29172076912173   16.11591705380016
H         5.17467345304577    2.39179226750383   13.72133855815729
H         5.99389734487560   -0.03421457481774   14.45040705475730
H         7.37320800494068   -1.10259607677910   12.41129942583440
H         7.31848792639574    0.64778005819738   10.39175986924672
H         6.00068143918485    2.82041340092655   11.20423193026207

