46
CSD_code = COQVIO | q = 0 | S = 0 | Stoichiometry = C12H25N3NiO5 | MND = 6
Ni        6.29749631069441    2.42276636780049    2.25504504150978
O         6.63408489123991    2.28369623609800    4.13866944344908
O         5.90833161833071    2.50349996883162    0.46750195318912
O         7.14847835633611    0.71398917024925    2.04631251538060
N         5.39213254184800    4.36786858911276    2.51907438810011
O         4.86041214149503    1.18065776969342    3.73585350700348
N         5.72887978581943    1.49474979042645    4.54753407562151
N         8.29520287091326    3.75761686338805    2.02727615029170
O         5.73437953439796    1.12779266264711    5.69245758786223
C         6.13416910031600    1.64838682431093   -0.43395336902300
C         7.24474168792178    0.03207891139818    0.99948950607090
C         6.77975429652237    0.42918218985545   -0.26000926690388
C         5.65611690814891    1.99837549585466   -1.82812776681748
C         7.91609889087645   -1.31781407227289    1.11353261403985
C         5.03599535882255    4.65506794953708    3.91202013684602
C         4.17986559814686    4.49771386354766    1.69106483128774
C         8.80251009851269    3.92050520001117    0.67081736377407
C         6.39386312515006    5.34447922864715    2.06194996717873
C         7.80776925207222    5.03012407237759    2.55915087974427
C         9.36022499257808    3.22495627878806    2.87257784470730
C         3.15300630613966    3.40952917901183    1.97898675557688
H         6.91014714539985   -0.22588601426786   -1.10497956819862
H         5.21084341085718    2.98970311346672   -1.83194079648850
H         4.91420527501940    1.27262629593063   -2.15271554890490
H         6.48939137842066    1.97155759262748   -2.52619758259292
H         8.31235880289538   -1.44486727651603    2.11702157142620
H         8.71808334950631   -1.40410864983718    0.38437076727593
H         7.18647446060721   -2.10026044608015    0.91638840499049
H         4.30651751285606    3.93208262397092    4.26692712404930
H         4.60495096382958    5.66196891005713    3.99530583536881
H         5.91180230688868    4.59139966100329    4.55186512486484
H         3.73600262874985    5.49324201247733    1.84797866077236
H         4.48267392429294    4.41677334882724    0.64597241260548
H         9.12697937536071    2.95372649323410    0.28994015183973
H         9.65534788963259    4.61651858938549    0.64092347807937
H         8.02138363973006    4.29588006206699    0.01381132633550
H         6.39765556159355    5.33765662263480    0.97045893104282
H         6.11346485953836    6.35455670433525    2.39711343937404
H         7.80030726432350    4.95676167281256    3.64710410716563
H         8.47426974453064    5.86201739838028    2.27526568027591
H         9.70314180582804    2.27919918064582    2.45825795837584
H         8.96916138827325    3.03478823321172    3.86885238189581
H        10.21289914357793    3.91746891601431    2.93369681499097
H         2.44524010868154    3.34721117602109    1.15654333594520
H         2.59577121273463    3.60206885253101    2.89160908581323
H         3.66161318059064    2.44699238775613    2.07530274480742

