25
CSD_code = COQVAH | q = 0 | S = 0 | Stoichiometry = C6H12Br2N4Zn | MND = 4
Br        0.25091344529350   -5.34340201842681    4.25760462096169
Zn       -1.82437845516549   -4.60251562839027    3.43067741430938
N        -1.03544846945149   -3.30092069562525    2.02713217498563
N         1.14540933806114   -2.62965788267262    1.15793431968818
C        -0.00897861407040   -2.97641214167490    1.60570122255745
C         2.34510696472889   -3.17587532177526    1.75994328779969
H         2.96324289695931   -2.36563289245927    2.15251963389976
H         2.91540145962771   -3.73042824043761    1.01159434246508
H         2.08191224312123   -3.84899414222541    2.57505975571887
C         1.29245311937413   -1.72379479809599    0.04292490781765
H         0.31382468604506   -1.40098036223677   -0.30666024190653
H         1.81733956922797   -2.22186005865833   -0.77650772706259
H         1.86998299857938   -0.84760552151881    0.34902343711756
Br       -3.89974574400960   -5.34237541611990    2.60274778330374
N        -2.61308639848349   -3.30338976812687    4.83612284315956
N        -4.79346717122906   -2.63036080537163    5.70512430494558
C        -3.63937015443267   -2.97807749595094    5.25735548166978
C        -5.99365657411867   -3.17785302536207    5.10529179286697
H        -6.61252336415417   -2.36834521290590    4.71235542919301
H        -6.56289658861052   -3.73160217847582    5.85504879974716
H        -5.73116545237651   -3.85190208833503    4.29071515367913
C        -4.93944598036368   -1.72197710869794    6.81824213631538
H        -3.96043971474749   -1.39871357596028    7.16636475378714
H        -5.46388601729716   -2.21805192067011    7.63916299906559
H        -5.51689802246065   -0.84627169983303    6.51062137391884

