53
CSD_code = COQXEN | q = 0 | S = 0 | Stoichiometry = C26H20I2N4Zn | MND = 4
I         3.11460220851125    3.25676774290985   12.41251725245655
I         0.07732084519321    6.19730582265029   14.52199236249420
Zn        1.74109958300223    4.34663820024335   14.21898552928027
C        -0.74052545432653    0.50472445905020   17.41712916890453
H        -0.32750167004663    1.49207076279190   17.56500793567286
N         0.60690353478409    0.26652329421572   15.41414692507438
C        -1.67387740343659   -0.00573713616054   18.30002891112976
H        -1.98892284992625    0.59021532609496   19.14274598091883
C        -0.33347806118888   -0.25954368149835   16.32917173611476
C         0.77300415670714    1.54832978020170   15.29658306343079
N         0.94560422231378    2.68141963761916   15.17194618952414
C         1.62688588572529   -0.23859486200156   13.26322188095491
H         1.11438204390936    0.60717301902841   12.83194188483102
C         1.44306658483175   -0.55856133257247   14.60063660424075
C        -0.86751505896883   -1.52535778282550   16.12220475452632
H        -0.56519005593039   -2.10711367553868   15.26446269943633
C        -2.19752593758555   -1.27330638731169   18.10733697535905
H        -2.92191830959048   -1.67040587278150   18.80133320752178
C        -1.79354642581385   -2.02729703169449   17.01818524799583
H        -2.20586716040942   -3.01166383125771   16.85697116224365
N         3.15018552070693    4.84431581519237   15.68511474072799
C         2.09892938481188   -1.64315293641282   15.16781999727345
H         1.95774599710013   -1.87430814493710   16.21365269343977
C         2.93254865990061   -2.41499789633891   14.37929004477426
H         3.44132131518527   -3.26121431513543   14.81571598612239
C         2.47942269952873   -1.00589517377908   12.48977583782361
H         2.63679504306888   -0.74123760054384   11.45652031517019
C         3.12788050388270   -2.09561688155386   13.04504401755181
H         3.79061705983488   -2.69456801095140   12.43996446381976
C         3.79681541114380    5.64428047726848   16.20642054457590
N         4.50138772040936    6.56500134276070   16.79069948226671
C         4.04688136973296    7.91057766420259   16.64748214827817
C         5.69305246179832    6.22566712791270   17.47331940245325
C         6.12828057906163    7.01074790841471   18.53393478790987
H         5.56050935103100    7.87941638014491   18.83202624827063
C         4.96014821659758    8.92030247777064   16.37441485406277
H         6.01269064993791    8.69159485862784   16.29279301403720
C         6.40639384715191    5.09298614909361   17.09789761503079
H         6.05919521526288    4.48647590978464   16.27397608048743
C         2.68942998639859    8.18656948778560   16.73330729933944
H         1.98522643168301    7.39580279695865   16.94058095403019
C         4.50369491236417   10.21424304561317   16.20134493345542
H         5.21155602757432   11.00164363446471   15.99118599011264
C         2.24358235574964    9.48144468017686   16.53794769593363
H         1.18599126643015    9.68669688832332   16.58427718092121
C         3.14909040263998   10.49581796752422   16.27762286727399
H         2.79994986768166   11.50559338427882   16.12735824211408
C         7.28813875434611    6.66609537869867   19.20315738024821
H         7.62711982367888    7.27812318566034   20.02505733261748
C         8.00620058445797    5.54192680962430   18.83002209657225
H         8.91016654421879    5.27848160765618   19.35695908402744
C         7.56011899838213    4.75530142492415   17.78115127269075
H         8.11373236043629    3.87719810556261   17.48611592440481

