83
CSD_code = CORCUJ | q = 0 | S = 0 | Stoichiometry = C40H28Br2N4NiO6S2 | MND = 6
Br       22.12573916727533    5.87640059587028    7.48948276005364
Br       21.62040681019246    4.70992704226999    2.46465297367663
Ni       19.24202707727313    2.34867665181425    6.02906699797236
S        17.81857082977356    1.96855128460020    8.19222801774944
C        16.97199520088130    4.87460242060869    7.89258697547267
H        16.30350380235749    4.04844374418685    7.68801317107255
C        18.67083271020231    6.98823762481652    8.43238455708551
H        19.33654941255596    7.81080900276620    8.64789954951907
C        18.07380955621403    4.67482990334903    8.71397696155191
C        16.73313400957580    6.11649401476580    7.33045368874312
H        15.87748220197784    6.26045646787053    6.68641520099579
C        17.58517975189284    7.17490843486602    7.59316537655394
H        17.40387941341440    8.14102934119031    7.14663461927970
C        18.37192494941027    3.33133779541772    9.30436277690758
H        17.84458280926084    3.19089777259338   10.25115733484782
H        19.44308689294797    3.21051838678483    9.45984623375092
O        20.72124084703179    2.66991047455615    4.40603249353647
O        19.94850721889746    4.12036628349477    6.66202679671475
C        21.85448118976892    3.07294777937603    4.75306627451636
C        14.47237967645012    0.78103295003818    4.65028337344251
H        13.60269655724056    0.15238774784007    4.54238833392730
C        23.84539398116562    4.42629220090079    4.22008511451629
H        24.36658859592653    5.13825564683451    3.59733608904296
C        20.22200923015102    0.58772931136438    7.97287494482175
C        22.52598802378782    2.63605328418942    5.95757452191294
C        18.93228101916574    5.35829427559004    4.89276975555672
C        17.92835654773035    4.38761222825394    4.63910347176966
H        17.13819055091381    4.70744895662740    3.96075094694537
C        20.85264535893179    6.19676482746771    6.13078295748885
C        19.46950590239948   -1.26715732956362    9.93678364443614
H        19.18025711230595   -1.97728954394828   10.69519299906066
C        21.04831986294611   -0.49294458735938    8.30115404776414
H        21.97334195882026   -0.63399906027868    7.76247127212195
C        16.72045324603131    2.41659000272882    4.94186770789197
C        23.84334459093593    3.03520901955804    6.20355729014618
H        24.35943746622443    2.69476170458603    7.08943068864410
C        22.57766737303953    4.02138139550908    3.95062296893315
C        19.90361871409502    5.14421027588108    5.93247213628501
C        24.49913576314622    3.89668365873495    5.35121044673167
C        14.33881571400800    2.15964721045971    4.68134443086300
H        13.36021924032594    2.60733853282628    4.60002692406393
C        15.72735552772826    0.21093243601802    4.77779301622358
H        15.85425152972442   -0.86042507482742    4.77805412778287
C        21.86985540574348    1.83492952517141    6.92536213143491
H        22.51984286224334    1.48881431419591    7.73134148934496
C        20.67744733406638   -1.40237651431588    9.27173612600919
H        21.33368682425250   -2.22725346550663    9.50320612249086
C        18.99053889245513    0.69040700002314    8.63180687279200
C        20.86361517502407    7.34472692757403    5.40185001352182
H        21.60132650180490    8.11724272319144    5.56186837629890
C        15.44477330408304    2.97388786694910    4.83371600095622
H        15.31622728681880    4.04313521269373    4.90271267636874
C        18.62355912087450   -0.22505861461951    9.60271407598563
H        17.66525391774418   -0.11346348454112   10.08574979202098
C        18.93899920833473    6.54969940156110    4.16525704011113
H        18.21190498052592    6.71623980401502    3.38427921429282
C        16.83431241192524    1.02409601896402    4.92144544164622
C        19.88194822067106    7.52489937439796    4.41017419908412
N        20.61005227556326    1.51287125122991    6.99348644963925
N        25.84557044603704    4.28077658687240    5.62290575776889
O        26.39938520169233    3.76503554925400    6.57568050483724
S        18.46216895379570    0.30953578503917    5.08162955811841
O        26.36651740216772    5.09016623768191    4.88044608277758
N        17.87283033578561    3.18788081375892    5.12535892822913
O        18.96797152403268    8.88478677148751    2.84620961467871
O        20.72242166669112    9.56465123272190    3.88914207565406
C        16.92391512414352    0.56408733032880    1.89459062175378
H        16.65112326497747   -0.46582185910674    2.07645267462795
C        16.09896972935579    1.37173998737941    1.13404783081032
H        15.18078634805728    0.97125106644604    0.73084662131249
C        17.63681458839599    3.19226161909787    1.39350080764801
H        17.93115249252662    4.21057705479500    1.18784312458217
C        18.97162894686953    0.22461183802347    3.29072213376114
H        20.00448632485308    0.56702711188650    3.28709504845195
H        18.91386971166247   -0.83153732137542    3.02974546534397
C        18.46111595870497    2.38788397283608    2.16002319054667
H        19.38261483516713    2.78011593417342    2.55988342207857
C        18.10871472255506    1.06942701817963    2.42101224681032
N        19.86041564547979    8.74101631728263    3.65932877334938
C        16.45030520238160    2.68895030316789    0.88737232498170
H        15.80402249414612    3.31721985536146    0.29285290707726
C        18.91476445174702    5.74616562663801    8.99001249766282
H        19.77260351255955    5.60283873646835    9.63020779468603

