69
CSD_code = CORCIW | q = 0 | S = 0 | Stoichiometry = C27H37IN2OZn | MND = 4
I         0.58480501556788    6.30075535937805    5.71067670685100
Zn        2.17199632873504    4.41929664434228    5.50700327366669
N         3.20194340945267    3.97137773399221    3.94105851559402
N         1.96705415385251    2.67060226143887    6.29273254369003
O         3.88492206052047    5.16264886760967    6.80553352339130
C         3.22475595627475    4.81634177183680    2.80198818288125
C         2.23494280014416    4.66251213643177    1.82588331467760
C         2.22389798843772    5.51706178103159    0.73556256520066
H         1.45512598270557    5.39794609567009   -0.01494377353554
C         3.16757799960225    6.52262136528574    0.58925092853879
C         4.13299066942871    6.66723026951876    1.57337723776027
H         4.87039980654509    7.45275881115245    1.48198380715637
C         4.17657525188544    5.83180551723251    2.67851317359432
C         1.16737641921392    3.62003346197606    1.97913949479296
H         0.65088582198399    3.45801837724521    1.03617043033036
H         0.43201984645241    3.95430435553831    2.71383555615244
H         1.57650212568352    2.67204146924502    2.32519658031931
C         3.12071917672341    7.45081340439047   -0.58627490766146
H         2.76815303562995    6.93266742896164   -1.47545311097414
H         4.10237766604754    7.87303518776902   -0.78852491308817
H         2.43381857607623    8.27263865716478   -0.38166568085600
C         5.21853664798755    6.03374678602552    3.73827180957194
H         5.87073603751163    6.86530373460628    3.48169194132942
H         5.82888203574509    5.13917623245410    3.86726678940355
H         4.73687612038040    6.24968938741702    4.69057211649701
C         0.90682363121065    2.36918240819360    7.18535134884777
C        -0.30249551414495    1.90098266459254    6.66003841805569
C        -1.35736214478797    1.64566846220345    7.52013235088766
H        -2.29171199479847    1.28684186107444    7.11173588647560
C        -1.24589746956471    1.84647804472505    8.88823008446381
C        -0.04519947355314    2.32551297316351    9.38756348792472
H         0.05608390726567    2.50028949481076   10.44980915084046
C         1.03345043086870    2.59216552607192    8.55836366728682
C        -0.46943653135047    1.72471705289559    5.18004462781852
H        -1.39890362352795    1.20671235898118    4.95746265944153
H         0.35826846881156    1.16560232152851    4.74549606774957
H        -0.49851150115273    2.70185418067657    4.69407786657702
C        -2.40976101349952    1.58416413901576    9.79501330325710
H        -3.08255032142740    2.44226148190543    9.79184556831856
H        -2.07771433357066    1.41773012961517   10.81709261707868
H        -2.97322891316660    0.71571149618885    9.46020985188727
C         2.31135464456176    3.13196244827424    9.12847354675840
H         3.14261797451499    2.44748056248216    8.95358422703965
H         2.21497548517427    3.29290985706099   10.19969676951182
H         2.55388671347512    4.08057587517300    8.65268417754711
C         3.83969991356891    2.81988757753899    3.90939959753441
C         3.71774714540817    1.82922373150824    4.88545279647596
H         4.34591111249353    0.96236117473487    4.73573174166130
C         2.79501061644357    1.71325738418562    5.92546778886733
C         4.70587927141339    2.49490603373135    2.71711618666022
H         4.07379114949348    2.21150561690038    1.87483711521369
H         5.37753056404816    1.66884266128085    2.93498133198900
H         5.28833786655110    3.35923590020131    2.40540983091914
C         2.71532908922035    0.37284528037676    6.61537527445855
H         2.55192341194596    0.49059775252382    7.68466628032009
H         3.62150862159009   -0.20462909540696    6.45180354471165
H         1.87164780990531   -0.19389998810844    6.22052965853164
C         3.95563685880207    6.41730802371888    7.49566538269104
H         3.16915173582758    6.44123166106819    8.25950585215731
H         3.76776775157881    7.22802817132916    6.78681664798527
C         5.34360906458933    6.48552064447325    8.12751692613934
H         5.34197599226154    7.05847793000768    9.05105529015933
H         6.05681509316983    6.93353942072445    7.43448147579313
C         5.66730975034943    5.00750724290483    8.33492286253776
H         6.73315575613778    4.80740836852937    8.41027870654146
H         5.16885344650603    4.63110215499316    9.22901125842549
C         5.05093229911172    4.39336747819342    7.08360828921627
H         5.74249435009292    4.46616505460748    6.23436444547272
H         4.75352197556007    3.35017938363196    7.20054993248253

