46
CSD_code = CORHOH | q = 0 | S = 0 | Stoichiometry = C19H21ClFeN2S2 | MND = 5
C         6.90680206627749    4.93245479297557    1.39158454550472
H         6.43194001475875    5.45744749553625    2.21677536217065
H         7.00329445815216    3.87980165840283    1.65363000690476
H         6.26194075976788    4.99560192233863    0.51694320244608
C         8.25279024667755    5.52970322982518    1.04988155896288
C         8.73223812651827    5.22050923432784   -0.22072886141290
H         8.09646243888503    4.59091715029902   -0.82489770077454
C         9.95793827605807    5.56767004191691   -0.78378214326034
C        10.21223352929637    5.00683445230231   -2.16438809037999
H        10.99044759816478    5.55884581875062   -2.68562973160766
H         9.29191559279409    5.06551036554570   -2.74272069212484
H        10.50070406141998    3.95807474119839   -2.11092020709084
C         8.53755152315980    6.47975486116363    3.20108917614414
C         8.64972909304225    7.73740253865686    3.81168461564579
C         8.26372696020761    7.94008523439109    5.12129878610213
H         8.29737967363920    8.92887352430339    5.55305314160605
C         7.84496101092921    6.86712628629415    5.89025187881527
H         7.55644691091086    7.02186571657135    6.91837974055213
C         7.83315309333609    5.59631217466609    5.33910596763476
H         7.56070748825767    4.74726630051642    5.94823645227350
C         8.16677739868065    5.40186701145040    4.01359058781191
H         8.18524001577282    4.40453423654488    3.60484326195712
C        10.55462458624404    9.71916694838172    3.95778807157677
H        10.95505961657635   10.61863057447814    3.50325510990725
H        11.32913606690936    8.96899895369029    4.09565263968269
H        10.07296361875128    9.96721471078040    4.89653280812871
C        12.10376338655398    6.55967517901232   -0.63562520692505
C        12.69439388178703    7.82822480791967   -0.54055405527491
C        13.96689101034969    8.06867109485386   -1.01813208048389
H        14.37900990645415    9.06610383139318   -0.99422899857904
C        14.72499467298655    7.02247244174763   -1.51667564303077
H        15.72531263640123    7.20654395796965   -1.87673027917927
C        14.20152942212502    5.73988777049673   -1.51596983986916
H        14.80656318940797    4.91066455684680   -1.85115893945498
C        12.90905481162929    5.50848160241152   -1.08945886646648
H        12.52408183274556    4.50190143460574   -1.06335111415110
C        12.93836034973885    9.77291380629242    1.39357026047768
H        12.49989727305590   10.65972152912495    1.83800169385807
H        13.83773017846373   10.04167740773818    0.85185216832622
H        13.14046547380752    9.01378751184881    2.14490483093329
Cl       11.75362111313657    6.88700282753985    2.62298983358852
Fe       10.24420341808996    7.63824606237285    1.23473765005262
N         8.87445423487763    6.36531717947907    1.86534647633076
N        10.79919144525381    6.40820001696057   -0.20452534571068
S         9.31999501062740    9.04496460451863    2.79752062949977
S        11.70542252734024    9.09807240157475    0.23187733889351

