46
CSD_code = CORHUN | q = 0 | S = 0 | Stoichiometry = C19H21BrN2NiS2 | MND = 5
C         6.72287046339433    2.01610926178912    1.31437460860421
H         6.30251281763062    2.63133945527074    2.10629719292266
H         6.56219179158099    0.96710262483536    1.55901814920176
H         6.19024218852946    2.22287754794073    0.38778290200147
C         8.18961050123600    2.30100664114666    1.10640692968128
C         8.72180879651218    1.89013781469030   -0.11219427727101
H         8.06579232939850    1.33637448994227   -0.76500351119125
C        10.01413141530595    2.13293962294971   -0.57923110202444
C        10.36393401325716    1.51814963968257   -1.91098887583609
H        11.06746120705606    2.13728732271696   -2.46319805988662
H         9.46241903732585    1.38870979658198   -2.50394412203040
H        10.81234807960531    0.53682598850647   -1.76213398624195
C         8.52040781592440    3.15021697991091    3.30292676437724
C         7.83089857628414    2.19116176346525    4.05362566326223
H         7.60517346898591    1.23393001160781    3.61248890402558
C         7.50127452360145    2.43102025212741    5.37348825390615
H         6.98005090039505    1.66940706480809    5.93410109705458
C         7.84067421156804    3.62689211909524    5.98354732566580
H         7.56878248706274    3.81668783650481    7.01003202207051
C         8.56825191347954    4.57059030275776    5.27741039896413
H         8.86777390473489    5.49069032594111    5.75500379543388
C         8.92713316688026    4.31545635659275    3.96956381922713
C        12.13942986732424    3.19035753308675   -0.51011970349927
C        13.08378451899144    2.21689454207495   -0.82288658373714
H        12.87237370916923    1.18399550195456   -0.59448152335136
C        14.30268462341484    2.58016050001230   -1.36740293453875
H        15.03290333467879    1.81734656360437   -1.58941421140089
C        14.58995877108053    3.90972842912978   -1.62090756516794
H        15.53835124238240    4.18933013726571   -2.05269149845443
C        13.66825476685200    4.89364540244057   -1.29797060584341
H        13.89558433127878    5.93283422557954   -1.47708251235956
C        12.46500410570728    4.53619084042917   -0.72595658827740
C        11.15194037321606    5.92910128140968    4.30239987125885
H        12.02814663951805    6.30948083696494    3.78743816456082
H        11.43065039969088    5.06279961888331    4.89363458686075
H        10.71508780395266    6.70950000435789    4.91940652412012
C        12.36906434334108    6.84109550254658    0.77807809236579
H        11.72803291026448    7.46949017891133    1.38926013227760
H        12.94593230965781    7.45863441096899    0.09676607257074
H        13.02344265504795    6.23241845303131    1.39741838330367
Br       12.68988638228022    3.52063484369437    2.58246840522187
N         8.91924812740640    2.96010741735147    1.99104967791796
N        10.88104861521631    2.90707773238024    0.03960941899332
Ni       10.61898810088855    3.94244671952131    1.54755881773323
S         9.94116776801889    5.44119540202724    3.03875503531519
S        11.26509069087143    5.74572070353145   -0.17510334778704

