55
CSD_code = CORHUM | q = 0 | S = 0 | Stoichiometry = C27H21CoN4O2 | MND = 6
Co        6.88209822627046    5.17671960335886    3.74838569099077
O         5.98791536844613    6.12084263780211    2.39764666654743
O         8.41557818612378    5.35908455071646    2.68556485859120
N         5.34372644380413    4.95942752814055    4.77636114660518
N         7.76862241702806    4.20494171201448    5.06657174578529
N         6.43937567399642    3.34527731396940    2.66997718262259
C         4.81020925947146    6.60642184367549    2.42637949463788
C         4.35600273715527    7.38870316937914    1.32670921930204
C         3.11312806504148    7.95279740282118    1.31300844083439
C         2.22777970781967    7.77391052939095    2.38778214104198
C         2.61408553322944    7.01636957820565    3.45670068190715
C         3.88747725392378    6.40883050140867    3.51023631427267
C         4.21340506222833    5.58974493366592    4.61126990216359
C         5.55235176375505    4.10381533114989    5.85110484245924
C         4.57651262414212    3.62309474029587    6.72051276954401
C         4.92019012124361    2.75515672495058    7.73891065222589
C         6.23504382324858    2.34771857238511    7.89745496110463
C         7.21568550489045    2.80464782787986    7.03829420514895
C         6.89116283748740    3.68805239696817    6.01191347289452
C         9.06154677195345    4.08195957609432    5.19181810007491
C        10.01796730499455    4.49946271397388    4.24292172037106
C        11.38859366628232    4.28616065292279    4.50639147584245
C        12.35177992882732    4.62075644155212    3.59752702957348
C        11.97463252156193    5.18622221170757    2.36912885258063
C        10.66130159792755    5.41534530716558    2.07619019566703
C         9.62344389637087    5.10208443991596    2.99937639011322
C         7.30683480391433    6.88641109055774    4.68409840348547
C         7.10199092681266    6.78837871997842    6.07840593702380
C         5.26491365587851    3.18904672341799    2.06940337228474
C         5.02070095551946    2.20027293086517    1.13099557724447
C         6.04353009970040    1.32742369741251    0.79876772201675
C         7.26567646648415    1.48032975217390    1.43226592357139
C         7.41534205414971    2.49990727650774    2.35733139379390
N         6.93281224448031    6.69915409661391    7.21343219066268
H         5.04664332752199    7.52707758793017    0.50891541057083
H         2.80361305895129    8.55009400680056    0.46722067004967
H         1.25141907820845    8.23261599627028    2.36204360910655
H         1.94040460891028    6.86541347387520    4.28925748746063
H         3.43349167823136    5.48167806905073    5.36264363794823
H         3.54174272261566    3.90498492373376    6.60325974026271
H         4.15627549436166    2.38729422387410    8.40688712496702
H         6.49667262589823    1.66257227557317    8.68940749228256
H         8.22712019317578    2.45220353469792    7.16780923778611
H         9.46317309091361    3.60832521328658    6.08559083877957
H        11.66402617514783    3.84420614164401    5.45431012916868
H        13.39547794601741    4.45312178880567    3.81425681704994
H        12.73867308682905    5.44681569255267    1.65061733615709
H        10.36205438250534    5.85723355840102    1.13808305655464
H         4.48162055231319    3.88119162842650    2.34448536604329
H         4.04854474782191    2.12260302638883    0.67017034981420
H         5.89200276014079    0.54820365765645    0.06665757068844
H         8.09374604523540    0.82438419584251    1.21402955110403
H         8.36003006928151    2.63823616486292    2.86413215659204
H         8.35191480073495    7.13946448402405    4.48620931406322
H         6.66673605102328    7.67310782726494    4.27587443056489

