48
CSD_code = CORMOL | q = 0 | S = 0 | Stoichiometry = C16H30PRh | MND = 8
Rh        1.46264055490685    2.97877353518875   -0.32822282545107
P         1.77720830188615    1.87159068805965   -2.26336118227905
C         3.61845046638973    3.71620963107431    0.20485873890693
C         3.36298946534609    2.50912938144696    0.96462075675939
C         2.27489784075330    2.75584119007856    1.82273320148583
C         1.77837278350091    4.07939796527625    1.54077867264405
C         2.68868307072016    4.69533827892879    0.60813930396043
C         4.85290030756834    3.96773201470744   -0.61000917747641
C         4.29036040032525    1.33391016053483    1.06752232713794
C         1.82554858302044    1.86827733398409    2.94332920350512
C         0.81108908362041    4.82725593053341    2.41240903305198
C         2.73005388354005    6.15221748867426    0.25700252715323
C        -0.39897002976896    2.12859725738119   -0.00184308687265
C        -1.22521539562463    3.14224812647401   -0.78704239773011
C        -0.08395472621814    4.08467985231726   -1.15792664972718
C         2.77124896998694    0.32341446453160   -2.18998460959568
C         2.71310020828496    2.78792293089778   -3.55763333830663
C         0.37709259124330    1.27168989430668   -3.29266366212749
H        -0.51835578006508    1.10351341473196   -0.36010059961576
H        -0.62219918600443    2.16103467105247    1.06834916663116
H        -1.70323528743202    2.70032094063938   -1.66244036409758
H        -1.99899707793993    3.62338889891058   -0.18413340078313
H        -0.01103207569801    4.26764452890128   -2.23316137449788
H        -0.15851360771142    5.04381167968673   -0.63767999658130
H         5.66736320605973    4.28460139265200    0.04598977046382
H         5.17804795561363    3.06992998895011   -1.13390894865813
H         4.68736678017243    4.75479786499928   -1.34336720214604
H         4.92513701938842    1.44532035812491    1.94992264700005
H         3.74022877969859    0.39945612668158    1.16752764693094
H         4.93995496626230    1.26142643220919    0.19798123963353
H         2.42779990309677    2.07212429533399    3.83202747644494
H         0.78288991616794    2.04444951338599    3.19760903771951
H         1.94522145706705    0.81710725339890    2.68793834770032
H         1.33336230068491    5.22978572588071    3.28354661172587
H         0.35716436136959    5.65823998660175    1.87680774990674
H         0.01429529090626    4.17643784309402    2.76630466518573
H         3.38273983460728    6.67896431402679    0.95743703600167
H         1.74155956786620    6.60221738490740    0.31589155876851
H         3.11676331134456    6.30825328425511   -0.74839609936447
H         2.89015684016309   -0.11183542751712   -3.18135601881490
H         3.75018421326493    0.54277448799893   -1.77063788556547
H         2.26757499452577   -0.38719110497386   -1.53735680086824
H         2.85356295853019    2.17464202895202   -4.44673716784019
H         2.15980001014508    3.68785265064095   -3.81873354684148
H         3.68222437278001    3.08248068772605   -3.16212281015121
H         0.75192008655082    0.77560115895507   -4.18704507230305
H        -0.22505092966061    0.57353289732424   -2.71683867235534
H        -0.24573054122034    2.11469059808357   -3.57992382865415

