54
CSD_code = CORPAD | q = 0 | S = 0 | Stoichiometry = C20H28AuClN3P | MND = 2
Au        2.96960960665534    0.37913627641590    6.42378205200251
Cl        0.81501450609851    0.82969644622166    5.89011021238356
P         5.09780983474576   -0.07617925364921    6.97372431628001
N         5.35204433675965    1.81784002977661    9.00733828142478
N         6.23018875036684    2.33618863803397    9.84728077289820
N         7.38669610000286    1.84772004476216    9.59734390660394
C         5.96913882636508    0.94065851983849    8.16721860906413
C         7.29703991595418    0.98679952075933    8.57949985339892
H         8.15777082724523    0.47655590465346    8.19903655162951
C         4.00074355825565    2.22817215403924    8.98729150903244
C         3.53728993390911    2.97715598695064    7.91151531786466
H         4.21605838772231    3.24181292784045    7.11238859105335
C         2.21877079992604    3.39779954064907    7.89389253714739
H         1.85171195714810    3.97070049264239    7.05739568271402
C         1.37157841909608    3.06407959577212    8.93683437642082
H         0.34107460771672    3.38123309344053    8.91112940350056
C         1.84232183106076    2.32222118951531   10.00759666741791
H         1.18102481284669    2.06331137395134   10.82022338084100
C         3.16151334471727    1.90516101773792   10.04265479741374
H         3.54422761729946    1.33328263534980   10.87453425246165
C         5.22326956890763   -1.76756333931439    7.71242319985326
H         4.71775193970110   -2.41876657218854    6.98405455972112
C         4.40463133600653   -1.76137466255984    9.00633795742208
H         4.88040320094275   -1.09585636127468    9.73373284091130
H         3.39807518627702   -1.37669607037612    8.80633287055561
C         4.32855009686753   -3.16900226005701    9.58921985620380
H         3.76353584118925   -3.14987836155802   10.52263215417356
H         3.79960538384006   -3.82148755402169    8.89095246799235
C         5.73160384859224   -3.71607054563719    9.83767653638846
H         5.66893089492380   -4.73184187550968   10.23120034157340
H         6.23486288742497   -3.09818311763454   10.58494307161001
C         6.54479151589464   -3.71018414886405    8.54659480931720
H         7.55110700745890   -4.08761378242980    8.73745877669364
H         6.07192743106786   -4.37096206936825    7.81610103189144
C         6.63108747249371   -2.29677548858692    7.97218616344169
H         7.21518616587026   -2.31024900632569    7.04912652717474
H         7.13934300774546   -1.65087142814691    8.69155150187354
C         6.25052086448959   -0.01271432961638    5.53666429503432
H         7.27204396462020   -0.23559232306234    5.87014977260421
C         5.80067826012305   -1.02502027082646    4.48481644926789
H         5.88897304157492   -2.04180525205492    4.87625026454873
H         4.74529362291046   -0.84577165448997    4.25142252501189
C         6.63456732059957   -0.88921285751455    3.21366498886570
H         7.67802476670886   -1.12553803511449    3.43740187927019
H         6.28178680904300   -1.60433639524876    2.46871482122801
C         6.54349896304841    0.52965944494248    2.66184809464230
H         7.14888911143521    0.61637642918746    1.75819519342640
H         5.50745336783061    0.74905739313447    2.39538437122908
C         7.02182661297432    1.53337624248894    3.70597026782788
H         6.94218806842528    2.54872771015427    3.31406156697050
H         8.07282283582918    1.34549517175611    3.93892045285666
C         6.19002808058498    1.41174690898088    4.97856246645645
H         5.14566463374541    1.65878429493206    4.75537550330168
H         6.55184891697965    2.12119803150010    5.72948134910853

