42
CSD_code = CORPEH | q = 0 | S = 0 | Stoichiometry = C20H16AuClN3P | MND = 2
Au        9.66664498780530   11.06484857830722    2.29626984813594
Cl       10.92993777258669   11.90856818018188    3.96916277227371
P         8.48279650994359   10.09919670375355    0.65196958395613
N         8.93276854380094    7.52510191174076    1.64635352752409
N         8.31555967167317    6.37083018277028    1.83184326259126
N         7.15838253566226    6.41732568254742    1.28488620781111
C         8.12862204607675    8.37047629598416    0.93812554594938
C         6.97637634448450    7.62000734715290    0.73108265781738
H         6.07201416914088    7.88981508867784    0.22468470132330
C        10.21386894745398    7.78407274944974    2.15568404759249
C        11.13844520457611    8.49044503821453    1.39440962539600
H        10.89621976156491    8.78357081407925    0.38007086244400
C        12.38463817438938    8.77034089135844    1.92778339083694
H        13.10273121568017    9.32293717925983    1.34183940920528
C        12.70099865928775    8.35388140423058    3.20937725945576
H        13.66547076082246    8.59364816605317    3.62849687389737
C        11.78183755321947    7.63212483950553    3.95424649742665
H        12.03135805573214    7.30609103319167    4.95196082515895
C        10.53651317197597    7.33888984694683    3.43152070349822
H         9.80418785976900    6.78227098220023    3.99532644132052
C         6.79442835205796   10.72836622843204    0.43790566817332
C         6.09493212783287   11.03230400203438    1.60341145605481
H         6.58333417021252   10.90700419495418    2.56231439518703
C         4.79508634515872   11.49397127999396    1.52708322015300
H         4.25161806452859   11.72610522828668    2.43043149569925
C         4.19535626774957   11.66522826972220    0.28880464255381
H         3.18117132100890   12.03029644399514    0.22824571663439
C         4.89502515849033   11.37577775971206   -0.87131022056440
H         4.42682117560362   11.51497995491784   -1.83444468257842
C         6.19534350724713   10.90718792235555   -0.80380135856923
H         6.74218215120722   10.68252369654683   -1.70906199224621
C         9.18895824701619   10.17334882998484   -1.01647623631901
C         9.11797809403097    9.11567399166708   -1.91789716740821
H         8.62404942288118    8.19489171470156   -1.63714566881591
C         9.68330366184087    9.25123149801562   -3.17328540353218
H         9.63098416277630    8.43167323310117   -3.87439965520363
C        10.31412974072675   10.43253582306486   -3.53004993334048
H        10.75444202482674   10.53102834872355   -4.51077278915782
C        10.38640377789207   11.48585055998489   -2.63137821701100
H        10.88251233314142   12.40340003188025   -2.90950742126112
C         9.82972614388384   11.35670145890196   -1.37280876170958
H         9.88914180424942   12.16267661340559   -0.65195113035204

