48
CSD_code = CORPOR | q = 0 | S = 0 | Stoichiometry = C22H17AuClN6P | MND = 2
Au       -0.63287340944015    8.14696924905513   10.98912098214521
Cl       -0.43966864811955    5.90234254435181   10.80119052274396
P        -0.70409491584738   10.37628392339234   11.29498475501030
N        -0.82420472034809   11.72929402922751    8.81878944285119
N        -1.67022882890689   12.43699344411476    8.08714242719856
N        -2.79472216530584   12.51152527340192    8.68978910580015
N         2.01483919298851   10.65979811110731   11.84906314536209
N         3.01368638426858   11.51529935970340   11.73127894850354
N         2.55564956495504   12.64332965815821   11.33336270150507
C        -1.43400465490839   11.34594297955993    9.97949290465168
C        -2.71823816469288   11.86079095183121    9.85647732052483
H        -3.54493106284421   11.79755861972999   10.53437219332251
C         0.50099214047317   11.50501328977046    8.40998630054733
C         1.10460402881022   10.27246523162417    8.62151525291985
H         0.53701797582871    9.44868940737465    9.04067948739797
C         2.42893664208103   10.09282969231596    8.26705329429416
H         2.89594995055595    9.13451477599844    8.43630875105144
C         3.14255963207096   11.13295336249781    7.69485271606361
H         4.17922418875824   10.99249433580868    7.43124639116992
C         2.52431289711307   12.34902177605727    7.45275943568296
H         3.07666602954752   13.15501980545546    6.99581342767019
C         1.20184573705664   12.54157937732058    7.80583264988089
H         0.70293192919677   13.48146780747955    7.62936428752859
C         0.84212940302166   11.26214823577195   11.50231795929520
C         1.23412394259472   12.55416219964676   11.16691005690723
H         0.65110470710258   13.38791707938090   10.83155292649846
C         2.19411582950414    9.34195270276532   12.29511140741890
C         1.31486226443261    8.80623747259082   13.23015767662941
H         0.53230201549537    9.42718463046192   13.65142408077005
C         1.48453339107980    7.49747160441711   13.64855246364749
H         0.80373958837483    7.07459895130317   14.37063900778235
C         2.51492144374165    6.73226727494957   13.12980429795364
H         2.62871155896366    5.70610387236507   13.44114318175022
C         3.39765430349834    7.27977859473904   12.21223775616382
H         4.20255614852828    6.68172545558130   11.81406009393907
C         3.24741132518317    8.58897360805583   11.79417970602983
H         3.92350401526644    9.03933429561207   11.08400537650991
C        -1.71199433356275   10.90358449715357   12.70804424284177
C        -1.77499984018057   12.24090803636086   13.09207941438491
H        -1.20888880907598   12.98630704039668   12.55107078644477
C        -2.56586994950075   12.60481537481528   14.16504349058611
H        -2.61906976954615   13.64082228675184   14.46388467247495
C        -3.28988715013691   11.64363692404764   14.85489533853892
H        -3.90718738795607   11.93482221798542   15.69115633394833
C        -3.22304343194392   10.31283456080041   14.47645259430358
H        -3.78549167024898    9.56520479176334   15.01479312760294
C        -2.43272372875662    9.93935248998571   13.40391641693589
H        -2.36756358916265    8.90257879696019   13.09549114680714

