62
CSD_code = CORQAE | q = 0 | S = 0 | Stoichiometry = C22H32AuClN3O2P | MND = 2
Au       13.59751490071987   10.96293166879319    5.42930515809194
Cl       13.71282239729813   11.71823413244473    7.57512558344094
P        13.38314151305180   10.37340690775312    3.27859139813728
O         9.35331755116339    8.62362939781664    3.92311890544851
O        11.37873327935096   12.74804042243579    4.72301329445140
N        10.22257423753914   11.10402243404659    0.98390247849892
N        10.63094370877170   10.79467619914450    3.03825303594392
N         9.68933703199639   11.02966057676439    2.14529929378267
C        11.84358186506244   10.71045862369383    2.42972825234543
C        11.54131708900360   10.91798915388512    1.08855357019645
H        12.18143911010636   10.94516403380325    0.23054870125932
C        10.32060585848432   10.69048106012647    4.41104858899385
C         9.60030253181406    9.57757222026959    4.85885887621256
C         9.22462342778080    9.51668591959867    6.19491081794994
H         8.67633704011255    8.67173828505487    6.57661021207156
C         9.55756619220127   10.55625791729516    7.04530018947101
H         9.26296830624787   10.50125640154802    8.08173691564745
C        10.26383459948360   11.65989711387694    6.60809576376375
H        10.52678077720655   12.43648808535472    7.30483197356170
C        10.65848581684074   11.73660478222088    5.27735251708028
C         8.57834030697539    7.50689864446790    4.29280869307475
H         8.47378807185923    6.91169254205136    3.38723991685925
H         7.58790790128273    7.80778102401612    4.64430076677937
H         9.07793173128260    6.91201984325050    5.06394574445232
C        11.66153008444973   13.87943527444276    5.52781320847322
H        12.20366700799827   14.56641825080744    4.88041039667976
H        12.28821751550650   13.60838090950842    6.38175877557577
H        10.73943370730917   14.35310110195230    5.87319682496493
C        14.57984150938733   11.28669449891989    2.21473955478915
H        14.41740385041879   11.02251662968888    1.16259319983241
C        14.31754604198762   12.78082057535730    2.41758503031244
H        13.30016026693401   13.02844760591665    2.10263205581692
H        14.39851293040974   13.01010916079315    3.48563311080983
C        15.32898392918617   13.61594188020830    1.63979450185448
H        15.21612631885830   13.42195686986555    0.57024078733590
H        15.13609357478629   14.67657404041293    1.80922810577779
C        16.74875533013896   13.26627747750683    2.07437653321342
H        17.46899022607653   13.85886387144310    1.50767549130643
H        16.87303494133479   13.50704071079337    3.13224497252244
C        17.01681818440938   11.78035394160771    1.85916757868566
H        18.02758137832789   11.53119474692735    2.18715789051141
H        16.94407350509066   11.54909441388082    0.79333625377713
C        16.00719362964761   10.93312079731322    2.62937821419254
H        16.11842768192455   11.11587674577695    3.70372348138167
H        16.20420661525516    9.87348656567666    2.44698373329957
C        13.64639868383398    8.56846685521948    2.96352444336592
H        14.63357639859553    8.34313298147380    3.39199951002694
C        13.61841039075123    8.15549820849762    1.49406564667940
H        14.39638420741021    8.67862043189684    0.93336019378968
H        12.65012673894050    8.41723691729802    1.06017715098126
C        13.83220504709486    6.64736272656453    1.37644132788777
H        13.79345724880779    6.35543074150830    0.32529192406791
H        14.82320037834478    6.39088737662302    1.75901197213263
C        12.77175060386960    5.88790077873863    2.16771613943423
H        12.94335187211072    4.81360856853508    2.08050202779017
H        11.78538104321435    6.10590455284946    1.75210632902349
C        12.80407968622708    6.30362966576199    3.63544522732421
H        12.03110479347684    5.77107865431520    4.19247119649177
H        13.77153083654832    6.04010398841706    4.06941874162354
C        12.58276838883191    7.80762241299592    3.75758197018835
H        12.61646087351811    8.11582666620625    4.80886601375677
H        11.59301933334987    8.05579501459490    3.36526983680639

