46
CSD_code = CORRIM | q = 0 | S = 0 | Stoichiometry = C14H21BrCoN5O4 | MND = 6
C         2.10880612047761    5.57978922147814    3.88768963695382
C         2.35371361965993    6.89572422232704    4.41284033119698
C         7.02806477403325    6.97789875085912    2.04652638789730
C         6.77998760532427    5.65028369990465    1.51482350025191
C         0.82277375725754    4.84469119853220    4.07142440032234
H         0.90202893940758    3.87244406393261    3.59033060733265
H         0.00516890478759    5.40300185386158    3.61869961386271
H         0.60383458896718    4.70855365747461    5.12974525991885
C         1.34920229693018    7.66975386663618    5.20014239839838
H         1.78389986853108    8.62668820911576    5.48002879057577
H         1.06166605820218    7.12604825639969    6.09921846965485
H         0.45694766786010    7.84253130437585    4.60095085639377
C         8.22577544497577    7.76968088458193    1.64511598622819
H         8.22440914082929    8.72060208541819    2.17152477122454
H         8.20110360290448    7.95768828817237    0.57297230151908
H         9.14065696672649    7.22712263566165    1.87721896665916
C         7.70847075187082    5.01331767204839    0.53772819023468
H         7.34592998392082    4.01949697268892    0.28826158281961
H         8.71248285294654    4.94076482505990    0.95223467586977
H         7.75479321965942    5.61206249161418   -0.37049478953757
C         5.47851697677631    4.09595924485496    4.87512848245927
H         5.05557775188796    3.47782564986392    4.09485745515005
C         6.07323407524762    3.50308157643689    5.96949911193194
H         6.12493710551267    2.42699522060648    6.02673056578710
C         6.59609998831677    4.29271064474120    6.99070371051555
C         6.47232068479486    5.66892424787617    6.83816019336844
H         6.84530055723815    6.34360441207188    7.59282823350449
C         5.86286039479900    6.18607078933059    5.71145652288049
H         5.75170708328965    7.25699554081912    5.60803529557482
C         7.24313256173469    3.68025190141115    8.18638167583742
H         7.60728159693087    4.44272615418115    8.86930576677379
H         8.07771959418804    3.05083362464961    7.88104150267681
H         6.53038920729957    3.04714457278438    8.71319225053652
N         3.12712062925656    5.07701281252684    3.26117661782679
N         3.54749048359612    7.33673838546776    4.16251078245512
N         6.12218938394731    7.40333225791638    2.85868742321749
N         5.69340926397192    5.10199509412008    1.93901628525131
N         5.37478920093056    5.41969337946142    4.73541368353149
O         4.02382072402661    8.44417608827803    4.61600160037074
O         3.17433545485057    3.87770941789165    2.79408549267315
O         5.36140476685609    3.86468574981082    1.51354551794839
O         6.24972440381580    8.62487346801645    3.41865493874029
Co        4.58551899662724    6.21598240002171    3.10716196159135
Br        3.59521066926461    7.17330570513847    1.17320182698768
H         4.41274127422806    3.71377776683808    1.91525553598771
H         5.35235100533947    8.75434973473752    3.93118562865022

