56
CSD_code = CORSEJ | q = 0 | S = 0 | Stoichiometry = C20H24Cl2N2O4RuS3 | MND = 6
Ru        8.05852511712451    3.66956994548461   -0.87894676492606
S         3.14561847757596    3.57505495552387    0.09985187003120
S        10.27515871786782    3.66490554503875   -1.40461321336839
S         7.71846278229172    5.47478912358401   -2.17806938122282
Cl        8.54651635614346    5.01214687284131    0.98287445883462
Cl        7.62678959276510    2.25255893214372   -2.68906760181466
C         8.94212939131291    1.43136930461605    0.89297122763710
H         9.90979881302847    1.67322913898107    0.45842165990235
C         8.97770547699791    0.44528781538293    1.96615954872423
C        10.07009015178195    0.53710244612513    2.88742174383512
C        10.25907099542769   -0.47895559736522    3.86006393781720
C         9.36207064001009   -1.56527121168564    3.90601684100629
H         9.51794918917571   -2.34602867053583    4.63530961585259
C         8.30575604761898   -1.62815716444706    3.04532290864272
H         7.61386194172391   -2.45990789320621    3.08050340000800
C         8.10308470103486   -0.62511289070027    2.08371673621069
C        10.95127118025147    1.63841570042577    2.89211912671455
H        10.80383830586233    2.44585080147706    2.19339714106627
C        11.98416447720710    1.70447678325920    3.78816674892019
H        12.64924856466328    2.55456761364376    3.77676693506396
C        12.18549593910988    0.68570422481955    4.72934826887929
H        13.00698350779426    0.75576206955121    5.42666041079342
C        11.33488262836271   -0.38288405081268    4.76646233890193
H        11.46612471327806   -1.16930658936151    5.49579004241786
C         5.72595470935660    2.74775879494850    0.34020593388127
C         4.35913981817800    2.51856057046777    0.74522269176227
C         3.81044995864893    1.57186328553106    1.57839588923454
H         4.37913189676763    0.81739237759132    2.09074705360518
C         2.41785138602154    1.70160393489633    1.69387018255676
H         1.80578558750910    1.05751628259545    2.29894256234603
C         1.92427264228756    2.73500065290514    0.95394381795682
H         0.90346482908283    3.04909878950397    0.86447631033111
C        10.63606549750076    3.51326651714872   -3.17252142565367
H        11.71173810427305    3.46219734034183   -3.29270218290551
H        10.20897297416090    4.37839275942466   -3.66722806081763
H        10.16350968941378    2.60091394079440   -3.52270736416217
C        11.12510087982383    5.23410219937838   -1.08492005535198
H        12.18086385199890    5.08305177818953   -1.27625162229032
H        10.95376394878592    5.48839511069246   -0.04345162328060
H        10.69388729305032    5.98325354718199   -1.73862260781168
C         6.98619595891489    6.84743871520922   -1.24469564741039
H         6.75386916661627    7.65750576598265   -1.92598753154430
H         7.71451091792196    7.16052125822543   -0.50312875650560
H         6.10112373283568    6.46254380867452   -0.74963474415549
C         6.34170866450400    5.20367433971232   -3.32642994947418
H         6.16242239512028    6.11436058550419   -3.88562580039485
H         5.48137435863331    4.90947307698918   -2.73501046425361
H         6.63084631959790    4.39174114838069   -3.98672233096706
N         7.97458740360578    2.09862898137495    0.38167494460898
N         6.69081848704974    1.92860176326688    0.82437149682807
H         6.46873604952341    1.07320266882098    1.32662398168529
O         6.01808318053636    3.68998509027578   -0.41685372970184
O         7.02969634548176   -0.72397410563392    1.23238292813061
H         6.65215149868277   -1.61056249012823    1.28154673742452
O        11.08055982625163    2.64407503948080   -0.73916269867874
O         8.81696491944598    6.03534926750205   -2.96119593491886

