39
CSD_code = CORSAG | q = 0 | S = 0 | Stoichiometry = C14H18Cl2FeN4 | MND = 4
Fe        4.66015266183740    2.47276549045875    9.70128039835824
Cl        3.19692682814030    3.79475115856272    8.94962283309546
Cl        5.56960040907676    2.50535075013400   11.48599950350889
N         2.69682646225195    0.66817752586680   12.17763762882942
N         4.77099292286743    1.69809940473683    7.99810055300728
N         3.61391085510687    0.48751177634507   10.07916082782317
N         4.15413256512871   -1.09749927453704   11.73679144566423
C         5.32541007756559    2.32587076195947    6.96615837181981
H         5.50183430481869    3.38587484174393    7.09723336309719
C         3.81897075217725   -0.27177577867905    8.95293192664742
C         5.30001719283379    0.37222838198833    5.58973111155988
H         5.49135107289290   -0.13783371341045    4.65813778587687
C         3.35928926462681   -1.57288231802751    8.78559142704766
H         2.82129571779447   -2.05278661751296    9.58974902613654
C         5.63863347458975    1.69075865343942    5.76608886749350
H         6.11215113425181    2.25654216662307    4.97922015853397
C         3.56525541314511   -2.24810939909011    7.58546286440370
H         3.20600158311033   -3.26244912950620    7.48795045309504
C         3.61052763197442   -1.99185596858034   12.72940617266475
H         2.61298830342815   -1.66978063449058   13.01418482977252
H         4.24481746512050   -2.03871970747032   13.61954026175802
H         3.54618086585236   -2.99993796517071   12.30699655768782
C         4.65797601305318   -0.31885278010204    6.64114983784556
C         4.43404697596095    0.38321013713958    7.85176208778084
C         5.38755939645160   -1.52365211893872   11.12621122501789
H         5.84247348228975   -0.68326752275681   10.60350993874744
H         5.23849083440688   -2.34355611320351   10.41494015136309
H         6.06836609296842   -1.85747650896269   11.91238587885903
C         4.22260787826119   -1.65240228371317    6.53802819243360
H         4.39845187254840   -2.18810442847305    5.61783063188961
C         3.13463876139795    0.91519913891750   13.53711699064936
H         4.01179235720728    0.32189609198111   13.77288332847765
H         2.33257528385112    0.68172809091579   14.24050347702894
H         3.40500312562869    1.96870149463325   13.64714137762000
C         3.49569247944406    0.01298171116468   11.29415603618950
C         1.83631726933850    1.70746224540561   11.65291875889787
H         1.40664976413345    1.38314626408287   10.70865841997953
H         2.38869568426296    2.63734802476947   11.47258987905922
H         1.04199577020360    1.89523815175876   12.37373742027923

