70
CSD_code = CORTIO | q = 0 | S = 0 | Stoichiometry = C23H39Cl2N3O2Pd | MND = 4
C         7.77605347366282   13.49578373629307    3.37956268638885
H         8.78683536354600   13.91110443269456    3.38091044490618
H         7.24114546259010   13.83292534562698    4.27658979908111
C         7.00532066434155   13.85878686417076    2.11536475804491
H         7.67152759625971   13.81851755286203    1.25377123537815
H         6.54884266912591   14.84457565134465    2.17228954896618
C         5.97949482474270   12.73312189462152    2.01648544290129
H         5.59638551832799   12.61195122207110    1.00551199173949
H         5.14353600268202   12.91292865782164    2.69283487286722
C         6.76703452436560   11.50330965100368    2.47815587096146
H         6.15568182157336   10.79671024933756    3.05661605517416
C         7.35308948239731   10.73465516616013    1.27726529456527
C         7.19880852953329    8.49879537671213    0.30333356542614
C         6.51007175585219    9.01846947603720   -0.95719754719039
H         5.47693072968629    9.28182156137236   -0.73902879517730
H         6.51827071877727    8.24129976326034   -1.71612390844614
H         7.02356451986286    9.89394992533599   -1.34613395312537
C         6.51768000799799    7.24015285605509    0.83217609978638
H         6.95240866843101    6.97849245167068    1.79592036706202
H         6.66355856966397    6.41376202982299    0.14352359694929
H         5.45313239016973    7.41287164140185    0.96680596104986
C         8.68558586771577    8.25032053929270    0.07406158416346
H         9.19136082787461    9.17581820182013   -0.19272097739109
H         8.81745042086258    7.52899766412396   -0.72764058447192
H         9.11950539602717    7.84498402484071    0.98800033335361
C         8.59612320613216   11.24002804791867    4.03926752567039
C        10.17170019770239   10.98284758841866    5.90331018237816
H         9.96782326029201    9.91173295791717    5.69214807898436
C         9.75693106249015   11.27318199309480    7.34563195372212
H         9.93223759028822   12.32857876110613    7.57496586096243
H         8.69136660692670   11.06567692932149    7.46026307585035
C        10.56731294415121   10.39749746659639    8.29744442673703
H        10.28348755761732   10.61432054104744    9.32845537306654
H        10.33673734572627    9.34894236778130    8.09998817001186
C        12.06284244338908   10.63475599538277    8.10673610530046
H        12.62798003834512    9.98288103861442    8.77466600617090
H        12.30398113483270   11.66849803394771    8.36654284161940
C        12.46925600569220   10.36745249367543    6.66002562222027
H        12.28070683005075    9.31925245563332    6.41819607776384
H        13.53673826548344   10.55738482112842    6.53091886072837
C        11.66512851117005   11.25141905777140    5.71060281724710
H        11.87765814865742   12.30386280727339    5.91799092244244
H        11.93678551301189   11.04658508999152    4.67186315156071
C        10.28235647262623    9.21541277973578    2.80589345173579
C        12.61578262736231    8.49228206722538    2.05875119793124
H        13.12455351633630    9.27737293229313    1.48228530232274
C        13.40474511841171    8.18681018899329    3.34006944152759
H        13.46649458927330    9.08669035405498    3.95629649332369
H        14.41866257700484    7.90128751385362    3.05212280605523
C        12.74855603801722    7.04960178928808    4.11731866533330
H        13.32144295948779    6.85076989133883    5.02500666771770
H        11.73474697295734    7.33772691484594    4.41000143008601
C        12.67293434501770    5.79683161936391    3.25070932042949
H        13.68239565247287    5.47875740354633    2.97415118726885
H        12.20382610738180    4.98987148965321    3.81339968119010
C        11.85109886200871    6.08356002896034    1.99825806779131
H        11.80225772815949    5.19380901816903    1.36891960474005
H        10.83273368402372    6.33714546466380    2.30076870905921
C        12.46370415517960    7.23033329765030    1.19881718120932
H        11.84381527960154    7.45704078547350    0.32906413880176
H        13.45854933958315    6.94898486964097    0.84526615945934
N         7.82009566163258   12.03963059165535    3.33189911865183
N         9.37664898911473   11.76811263732905    4.97433256030848
H         9.33301781281040   12.75869552748063    5.19180678540966
N        11.35436197381301    8.99038632713440    2.41097971496403
O         7.96768950943743   11.25758377962928    0.38227247815010
O         7.01923230790987    9.46164147087526    1.38742428871639
Cl        8.77600314113336    6.96593798405410    3.65143448251208
Cl        6.80417782148549    9.24379019858425    5.04089303104694
Pd        8.64214428976658    9.26282869215033    3.73810723883744

