35
CSD_code = COSALL | q = -1 | S = 0 | Stoichiometry = C16H14CoN2O2(1-) | MND = 4
Co        2.63772390192914    9.97749773823562    1.09920045782953
O         0.78141571983976   10.19204540943985    0.94076624085488
O         2.69987622021503   10.07046993429175   -0.77188062250426
N         2.57839779743422   10.01798382333207    2.89606421418251
N         4.40038786622575    9.64361915573717    1.23016439839436
C        -0.10627035666411   10.23138992792881    1.85502244226189
C        -1.48002503169120   10.33585295494715    1.50741592455174
C        -2.47029296439098   10.38139312665872    2.45563120475390
C        -2.15984232683406   10.32903263386127    3.81575235497239
C        -0.84296115349558   10.23079886233148    4.19918279214330
C         0.19527555563978   10.17999821709695    3.25913149789935
C         1.54336073031941   10.09338160963230    3.68714884366819
C         3.87905933949775   10.01971261816995    3.53466267249032
C         4.85192042855448    9.34560286157132    2.57434432632971
C         5.30229748391916    9.58560405711479    0.28881867253755
C         5.05060795617101    9.77128887379067   -1.09323493727528
C         6.10251944499274    9.71259920694596   -2.01751165102884
C         5.88871523648022    9.87696144230132   -3.36587014345198
C         4.59067907134258   10.10627861128788   -3.82598367662361
C         3.53636080456402   10.16770750187426   -2.95058355724391
C         3.70828926716512   10.00656184301794   -1.54935144862583
H        -1.72010019202064   10.37700512523210    0.45423891222600
H        -3.50723618452036   10.45989690543711    2.14940099700065
H        -2.94810570917726   10.36644911275065    4.55689224903209
H        -0.58849327336185   10.19107108449313    5.25330825141890
H         1.71411685850203   10.10013940867080    4.77017582946838
H         6.33908249220958    9.36933754521316    0.57251691606338
H         7.10651027079421    9.53212244605368   -1.64749849639670
H         6.71432842143002    9.82885371562302   -4.06445510500467
H         4.41807934406123   10.23600822922326   -4.88832720345400
H         2.53109918405289   10.34449189210288   -3.30656527324004
H         4.19316733958815   11.05944421633420    3.70242406010466
H         3.85545589836833    9.50994821696057    4.51068551001064
H         5.88618581942520    9.68490897252086    2.74210074589136
H         4.82251473943396    8.25784271981721    2.72851260076284

