35
CSD_code = COSALS | q = -1 | S = 0 | Stoichiometry = C16H14CoN2O2(1-) | MND = 4
Co        1.84057300977158    2.15264797899314    0.34426349475935
O         1.44697966589135    1.76693789043543    2.13570124950911
O         1.51277891987086    0.34019265569894   -0.00553176212570
N         2.02647173162150    3.91154841400879    0.67066361814023
N         2.33570814091949    2.48212400908206   -1.35372150063949
C         1.43940154631701    2.54521198877723    3.14550125117232
C         1.16320767398971    2.02736919228300    4.43950366471924
C         1.14278654281210    2.82573667832487    5.55485062447296
C         1.39444402311113    4.19551035047806    5.45753716781547
C         1.66462286608912    4.74129049868366    4.22464753502880
C         1.69488946746265    3.95705288199279    3.06349040707652
C         1.95963782495599    4.55270996217345    1.80528901464984
C         2.22323014981699    4.71994980093292   -0.51555599516911
C         2.84766193621499    3.81924454961795   -1.57485641050256
C         2.33878504424493    1.68082889686097   -2.38352823921592
C         1.95071572816357    0.31818432147410   -2.35654215110642
C         1.96739656410791   -0.44513379126400   -3.53179980401937
C         1.19570669305111   -1.66087679178114   -1.16773941535855
H         0.96779428134050    0.96684339657161    4.51443394496066
H         0.92826543640666    2.39194477526929    6.52487289361616
H         1.37498017055041    4.81779990271339    6.34318160016294
H         1.85968409429121    5.80501073660103    4.13545658369282
H         2.10751128732866    5.63912246096129    1.79984210915444
H         2.85298636226278    5.59996348942463   -0.31034445998410
H         1.24627310639283    5.07731171340969   -0.87030576175440
H         3.93935485762465    3.80937949843302   -1.44805088154072
H         2.62684444482858    4.17831302594342   -2.59245073195649
H         2.67296938417486    2.07533189589376   -3.35047045112280
H         2.27237241553878    0.03491576623751   -4.45595332190034
H         1.62814807317292   -2.34583100951738   -4.45390566335235
H         0.94037778424002   -3.42329254540263   -2.33631027996027
H         0.89630222308281   -2.12790441038280   -0.23996480326098
C         1.60957975712659   -1.77286396118615   -3.53553922968666
C         1.22211751815813   -2.37644396428990   -2.33774816246776
C         1.55284127506802   -0.28653025745226   -1.11501613380702

