89
CSD_code = COSCAR | q = 0 | S = 0 | Stoichiometry = C33H53N2Sc | MND = 12
H        15.35320264957490   31.70641889316921    1.01898784843057
N        14.29179397162578   30.36128866072502   -0.19113754178265
N        13.37858670161609   31.37146164717131    1.63714112323062
Sc       12.37452815577706   29.73256322144181    0.61347593874615
C        14.40029536227681   31.17885954566052    0.83289378195730
C        15.46921058126253   30.25411637187042   -1.04173595517591
H        16.36785866108963   30.11881054447714   -0.41342897248051
C        15.67533434603685   31.52429438932183   -1.88365076745650
H        15.77238065554071   32.39129034694717   -1.22572380720687
H        14.79430906633466   31.67941858698106   -2.50970758394558
C        16.91544947765459   31.39806223253463   -2.76281346043035
H        17.03941833438974   32.30570577331020   -3.35824747383568
H        17.79949425622194   31.29162001116789   -2.12892177359715
C        16.80325251554138   30.18394192908505   -3.67908980457055
H        17.70709267136115   30.08945437235644   -4.28507910824330
H        15.95732257323580   30.31893223132912   -4.35711922830677
C        16.59164596655445   28.91885009148820   -2.85351540105820
H        17.46671028356504   28.74966973374082   -2.22068500955996
H        16.48654803378346   28.05555693217689   -3.51466462271768
C        15.34943808928493   29.05360651883635   -1.97806655901394
H        14.46893983170607   29.18728259062109   -2.60662371838632
H        15.20428752104698   28.15087931111599   -1.38679726071347
C        13.57902668423374   32.36868037815149    2.67909022619483
H        14.57280263773397   32.22720159363683    3.14293009565808
C        13.53637814946780   33.79082428029540    2.09705172539312
H        14.30546516072849   33.89428900053427    1.32817783169483
H        12.56844726065383   33.94259617026588    1.61724787147374
C        13.74194170295962   34.83685599791685    3.18756693004946
H        14.73345604972944   34.71073293297902    3.62996186819795
H        13.69625726603130   35.83767930277109    2.75168046452762
C        12.68293165440884   34.69174824173557    4.27542831574184
H        12.85263328395294   35.42973819662768    5.06261338261412
H        11.69532548141783   34.87920509113654    3.84742014025471
C        12.72116750726684   33.28395959709031    4.86107931509269
H        11.94707003665005   33.17658089920280    5.62445126202378
H        13.68851127754477   33.11903046634045    5.34237381914284
C        12.51464051661939   32.24038257340966    3.76711150170366
H        12.55702459184509   31.23937780852743    4.19435438362461
H        11.53344858346878   32.37328721886879    3.31075383446899
C        13.10948536395805   27.33763732803034    0.80703258278131
C        14.08358118976719   27.93003800569600    1.64551460400895
C        13.42213765928399   28.52291291336383    2.74697655743168
C        12.02723794543092   28.31104954659365    2.60572288429821
C        11.82383249705675   27.54565156989095    1.41004128104662
C        13.35914489132980   26.34386390926136   -0.29720642432567
H        12.89740193327642   26.64411597561147   -1.23947380219527
H        12.94985929874617   25.37055593321239   -0.01715989021753
H        14.42504903456964   26.21366450617969   -0.46806828499933
C        15.57546330535585   27.80782444008685    1.56429573609406
H        15.90271652368653   27.42401102848654    0.60210410068718
H        15.93246680867039   27.12369902445483    2.33850041637691
H        16.05446626451460   28.77206824962812    1.73107829215506
C        14.13940027096596   29.03128699719208    3.96155116649496
H        14.76095447505421   29.89674311833228    3.73397008796311
H        14.79660092122323   28.24930249351962    4.34853688985624
H        13.43973847923512   29.30098995436814    4.74854245133008
C        11.00667681607690   28.52506808536616    3.69415706190197
H        10.04126549814108   28.11877372981309    3.40221506434231
H        10.87756325721509   29.58072150186806    3.93914579080560
H        11.32138118707986   28.00820784611623    4.60346231607296
C        10.66403409051943   26.61054407913069    1.18475422979222
H        10.61386450851119   26.28122819474862    0.15107454239613
H         9.71168611002873   27.05428762296086    1.45949402695442
H        10.80600810501924   25.72248899871629    1.80916764243051
C        10.45433560569328   31.29623989288973    0.26792258306373
C        11.34707991754249   31.52910359531525   -0.81013238214098
C        11.40847032870618   30.34286598596867   -1.58934029828763
C        10.52611544801951   29.38294384359607   -1.01587078131186
C         9.93355529530813   29.97582708493055    0.13840447513259
C         9.83888235741071   32.33540828859992    1.16211905962595
H        10.51229788002645   33.17165332907696    1.33031161444938
H         9.55842900191721   31.91194014522628    2.12549936309491
H         8.92910227591742   32.72749895461029    0.69716834501357
C        11.95833414557007   32.84231372046987   -1.20595080035450
H        13.04055182387568   32.84104349055804   -1.07198191941656
H        11.54118945393616   33.65422848987338   -0.61560922374181
H        11.74671627901623   33.04758267495701   -2.25647715010364
C        11.96310273475816   30.24822513493690   -2.98213227222142
H        11.20312390436261   30.56991828309891   -3.70124519924206
H        12.23965604210058   29.22546724877478   -3.23309927831196
H        12.83079667867178   30.89086560651295   -3.10610125413514
C        10.02794096890191   28.18178111371010   -1.77323977474209
H         9.53315718717841   28.51566817561444   -2.68891600728325
H         9.30413533469391   27.61551410601514   -1.19436521277281
H        10.83802785719772   27.51334926087322   -2.06620249796520
C         8.68405957275193   29.52841268059222    0.84737352898404
H         7.87078369675916   30.21799980042240    0.60736760271452
H         8.80144499324853   29.52756929854784    1.93089677744454
H         8.37656723152648   28.53629105718005    0.52778776728740

