27
CSD_code = COSDFE | q = 0 | S = 0 | Stoichiometry = C8H12FeO2S4 | MND = 6
Fe       -0.60902035644055    0.67288707162700    2.86108371848392
S        -0.93827106293624   -0.92901557062364    1.23342788035257
S        -2.85773817247689    0.52170241955115    3.34637277126657
C        -0.40841432821526   -2.43555055840009    2.13174871729108
C        -2.76442958398270   -1.15351278218959    1.15316090176436
C        -3.46335505816291    0.08272316162711    1.68077866659286
C        -0.36946138960809    2.00466623569255    3.96705339840823
O        -0.23570930729715    2.93955492997825    4.60852450465126
H         0.67664801569386   -2.42959072526540    2.01264407619238
H        -0.82131641449763   -3.29769338088236    1.60710578012055
H        -3.01884710894582   -2.02799248967517    1.74880748183818
H        -3.00875640434658   -1.33473962219418    0.10579305172299
H        -3.29996032671400    0.93342670801887    1.01740854509280
H        -4.53452652401426   -0.09719360595748    1.77856301227281
S        -0.28043748300274   -0.92924755651189    4.48875527691543
S         1.63974213063488    0.52167556658719    2.37593861448085
C        -0.84848696756005    2.00450110417994    1.75492939880990
C        -0.80982678072602   -2.43576884581471    3.59012186008236
C         1.54574355625814   -1.15352757699332    4.56925560437520
C         2.24473304784636    0.08273507703163    4.04175799456050
O        -0.98232824976558    2.93908177575222    1.11307634030395
H        -1.89488382693153   -2.43026769765397    3.70924475523409
H        -0.39659870587121   -3.29787245649314    4.11458198898512
H         1.80038155585215   -2.02795584325098    3.97363630567321
H         1.78989718648217   -1.33478618163415    5.61666404614373
H         2.08107051455812    0.93345646140704    4.70501458651782
H         3.31595204416942   -0.09709561791291    3.94435072186730

