109
CSD_code = COSFEV | q = 0 | S = 0 | Stoichiometry = C32H63As9FeO4 | MND = 5
Fe        2.42946363440299    2.67166724323911   14.02060770450437
As        1.79524665012617    2.30767563236141   11.94701356329475
As        2.47000612475652    3.69061093530095   10.10960174672321
As        4.90763390047621    3.60511973453495    9.61735372093765
As        4.78807467397329    6.04049682370015    9.69555653261084
As        3.06934609119795    5.71853959460634   11.39393856678889
As       -0.39942605338071    3.00055330531868   11.32565940864919
As       -1.15217869919508    1.71282280738353    9.32869223802434
As       -3.32991837955731    1.76292451155481   10.42766592987078
As       -2.09926384320674    1.73284141070389   12.54340917590063
O         3.62107777156249    0.92667546540154   16.03036821606620
O        -0.03780782458095    1.23498460538923   14.55421334814303
O         2.06151705247455    5.50913785286718   14.68619200625741
O         4.87990518526174    3.01653667930737   12.51025388617233
C         3.15861919067347    1.63440411677529   15.24203575722277
C         0.94499502304728    1.84527610143322   14.39505666472919
C         2.16069659249360    4.37271681068566   14.49063203831560
C         3.95172527759307    2.87715284126886   13.20902439057101
C         2.15077738827538    0.39155424332696   11.35333189852535
C         0.97015144933176   -0.49289478109488   11.73439964126564
H         1.19211651327700   -1.54143574484485   11.52919988072301
H         0.07490538195369   -0.22728453770137   11.15596112463621
H         0.73449016298826   -0.41357551410382   12.79893927158212
C         3.38804870189384   -0.08106910171270   12.09758200726677
H         3.24132188967060   -0.03909400909043   13.18080697266871
H         4.26535459905525    0.52273721188810   11.84552195971093
H         3.61863682154771   -1.11588721642332   11.83772951311731
C         2.40734622123817    0.29982406465771    9.84995743460677
H         3.33987993917143    0.81557195431524    9.59551111497752
H         1.58419063751587    0.75063694161495    9.27331255905217
H         2.50672781975592   -0.74097405780262    9.53841145070226
C         4.83688681049725    3.45943239796984    7.56305841715654
C         4.42543144595359    2.03993013677372    7.19342487762508
H         4.50912246485109    1.87904310270670    6.11876379507003
H         3.38502722674565    1.87322642579872    7.48201772562472
H         5.06355437579691    1.30943872621188    7.69603936883216
C         6.25211831690894    3.74014436257927    7.06780951156081
H         6.31537136169865    3.63717355600901    5.98515919100030
H         6.96124052662271    3.04541514794862    7.52443411364978
H         6.54181820303311    4.75960778337383    7.33718507580930
C         3.87101629162205    4.43073305205166    6.89803278985821
H         4.21464832742246    5.46136254648683    7.01527605042283
H         2.86897631266031    4.33562383697476    7.33447094324670
H         3.80327903478408    4.21780285617995    5.83188301995188
C         6.42015221335160    6.51924498300666   10.87134335174716
C         6.58338569536561    5.62895446094621   12.09083210434800
H         6.72349463031996    4.58891395766630   11.78660943859237
H         5.70416845762584    5.70049386593196   12.73844285426133
H         7.45358408897020    5.93343923377921   12.67267191953136
C         6.23924883769674    7.96653441146741   11.32297125873396
H         7.10224677798305    8.30861948283910   11.89352701435073
H         5.35030370852897    8.04554038106659   11.95468962840485
H         6.11126383150135    8.61897338695136   10.45525867634494
C         7.65881969483193    6.39197562887325    9.98663335837973
H         7.55259825821057    7.02233611593570    9.09972698552123
H         7.77496951671114    5.35305428215370    9.66613768915120
H         8.55706064932749    6.69272983330544   10.52507847733767
C         1.71599112763268    7.09633087255441   10.69243452888269
C         1.41477279467929    6.96115045690877    9.20632419588462
H         1.01850227165420    5.96471036056366    8.98157941381315
H         2.32117864642907    7.12066899656885    8.61501959719417
H         0.67480032807227    7.70067053368682    8.90214133463400
C         2.30746426751717    8.47692720069697   10.96505920144092
H         3.22836096448616    8.60974110774027   10.38930147665991
H         2.54078672971574    8.58738802389568   12.02681825178089
H         1.60665902429638    9.26232918079772   10.68382232785234
C         0.43096809518652    6.92267832612566   11.49358770650479
H        -0.31276656630135    7.66786830282348   11.21183905995441
H         0.63104521442063    7.02595778644906   12.56165356956544
H         0.00398505645435    5.92769740954817   11.31186980541794
C        -1.51665149928268    3.20918478753880    7.94735859830520
C        -1.99199574010871    4.50827903506649    8.57795935925126
H        -1.24207932788821    4.89136173367535    9.27781230426135
H        -2.93110836352936    4.35154925267895    9.11625805673855
H        -2.16081680435089    5.26212603533380    7.81051360627572
C        -0.22430481058221    3.45123693614697    7.17638263422893
H        -0.36605440404190    4.20522882342485    6.40379407451080
H         0.11019868209935    2.52706149294402    6.70190361392322
H         0.55849755887525    3.79478312904598    7.86105749862422
C        -2.58737913942815    2.68499760926621    6.99287604447758
H        -3.52146869130073    2.50905287374774    7.53300150714771
H        -2.26237522408433    1.74378314151534    6.54349048490556
H        -2.77742102757935    3.40272312169930    6.19658623234309
C        -3.84497664849858   -0.22918649230599   10.27549755623683
C        -2.71300096040433   -1.18980912827485   10.60928156455771
H        -2.35074629112274   -1.02358909961556   11.62860077106693
H        -1.88751509602417   -1.06360350503091    9.90109412169375
H        -3.05998480694059   -2.22087190896463   10.54206432069288
C        -4.29124917649346   -0.46835455700539    8.83583765632411
H        -4.62254444989993   -1.49634796237626    8.69376944010045
H        -3.45528301017941   -0.27048413765997    8.15817961373978
H        -5.11369781140417    0.20269288293108    8.58036214456908
C        -5.00625607366220   -0.46552504437206   11.23829060968813
H        -5.82425073268388    0.22518812024503   11.01787413912029
H        -4.67594296022899   -0.29653061329750   12.26669677430969
H        -5.38073394828860   -1.48581687762623   11.16007578695419
C        -3.03434370955547    3.28103088075129   13.47131083566540
C        -3.38315554937896    4.44631777760895   12.55268911545530
H        -4.10494475500706    4.13790364953486   11.78942308762872
H        -2.48828633154549    4.83993848549810   12.05331691705252
H        -3.82961538348937    5.25676464059160   13.12968457904108
C        -4.31982569038068    2.71167917953902   14.06323355505404
H        -4.86442887245750    3.47084708615322   14.62519839015838
H        -4.09677518210650    1.88032958678986   14.73654344778951
H        -4.96703634496413    2.34414851907631   13.26052407404551
C        -2.12264920083566    3.78311107002282   14.58405216481582
H        -2.59440672749237    4.58801477240823   15.14885105301188
H        -1.18699762972026    4.17429908133775   14.16827294344289
H        -1.88298877320184    2.97737718383805   15.28001349316122

