78
CSD_code = COSGEW | q = 0 | S = 0 | Stoichiometry = C21H44FeI2O8P2 | MND = 6
I         0.57911625626810   12.83346783266318    2.12794292642286
I         4.95343981531850   11.45613636854216    4.64356688464588
Fe        1.50111183007130   11.09579548367302    3.70445754456830
C         2.18152974550748    9.89381151297474    4.74708670718313
O         2.52940126854434    9.07572118799417    5.45709240920370
C         0.04481856873007   10.47156173381805    4.48043290075593
O        -0.66004237499067    9.86609826107829    5.16289476572221
C         3.42719458587841   11.44506941914635    3.10894101777934
P         1.36971098943871    9.68648350795543    2.05460425891846
P         1.68941442432260   12.66133302005807    5.20027187930457
O         2.27748255541382    9.73510161426145    0.75248494681491
O        -0.02894794709783    9.39012265782855    1.31581322442601
O         1.84711426095510    8.29998309860023    2.67967533537057
O         2.11832445227240   11.91399193184842    6.53815892464856
O         0.40281305604716   13.54647779639474    5.59386321755867
O         2.72797933036323   13.85470543289483    5.13084011231413
C         2.01729930275746   10.47410770360228   -0.45313813037433
C         3.15976187029928   11.45172342900764   -0.68074033117263
C         1.89125918666861    9.46742535246227   -1.58857690162626
C        -1.34703218549688    9.59915509589551    1.81459151807070
C        -1.87808861513813    8.30769797002537    2.41941979889055
C        -2.19577272021784   10.09337356588600    0.65078409674805
C         1.98378905499094    7.09020110088364    1.91265569565090
C         3.45769054019222    6.86530592198601    1.60888081805035
C         1.39592348006237    5.95507401403897    2.73872216567113
C         2.27672478447822   12.57853080983254    7.80503290786922
C         1.76043295768392   11.62570047133019    8.87465847694073
C         3.73963973076869   12.92833853308883    8.03033589221250
C        -0.98043200752632   13.22631221169064    5.49336578567413
C        -1.47809862877229   12.65475361235588    6.81320206190799
C        -1.70876656887004   14.50589373993277    5.10291954476075
C         2.53824534932972   15.13765749793969    4.51283806859534
C         2.62104496173133   16.18924189122809    5.61121873170941
C         3.61679104279339   15.33361610490686    3.45798200921470
H         3.79608788665791   10.68391695564629    2.41741922409778
H         3.57119933824635   12.41083457334977    2.61928667359552
H         1.07493623685878   11.02156005956252   -0.34879563375861
H         3.01051083566454   11.97582832650992   -1.61992233312962
H         4.10763253672192   10.91939344438505   -0.71271618218578
H         3.19413513756379   12.18647831520643    0.11849227638787
H         1.69327148056307    9.98920305901535   -2.52035783970814
H         1.07226183827729    8.78143184940626   -1.38665291113348
H         2.81183343101637    8.89666422948457   -1.68685418173467
H        -1.31678915212240   10.37455139666301    2.59271434041589
H        -2.89432876850791    8.45505623758346    2.77479411579957
H        -1.25467530583271    8.00461910561493    3.25866969697842
H        -1.87244358941963    7.51707187258266    1.67226987043628
H        -3.21715022634850   10.25636388276794    0.98141888517567
H        -2.19108480295384    9.35753230364930   -0.14942492428278
H        -1.79534402823456   11.03116012179851    0.27264418056817
H         1.42246439479937    7.20505133821219    0.97674135331719
H         3.58585560135792    5.94771774539402    1.04056679153791
H         4.01680167890957    6.79150800072930    2.53874545409553
H         3.84952056815106    7.69961957587426    1.03322943095382
H         1.50354915976232    5.01445548015600    2.20536270653582
H         0.34098183935555    6.13148724231494    2.93348000316750
H         1.91785718695907    5.88772749077484    3.69025978739381
H         1.67216805513093   13.49518720940179    7.79173507239965
H         1.86250097127607   12.08032103660562    9.85625004809214
H         2.33613840528257   10.70375114226009    8.84691810580516
H         0.71371119832068   11.38553675764830    8.70458243256246
H         3.85639229992818   13.41676073428002    8.99437834014710
H         4.09383343801206   13.59135947116419    7.24706476905994
H         4.34331717859445   12.02448432251517    8.01009566154414
H        -1.12039668557325   12.47725496702200    4.70200093549526
H        -2.54284223053803   12.44742670862802    6.74839784506595
H        -1.30138892936097   13.36504981377797    7.61789235172963
H        -0.95531342095625   11.72797108335769    7.04080657555616
H        -2.77473006161841   14.31489140625574    5.02377847210946
H        -1.34345295562899   14.86132882386964    4.14226150274558
H        -1.53653593364383   15.27295673084621    5.85378933661677
H         1.54765940654560   15.17667279831271    4.04707592772335
H         2.46244901059134   17.17660711622653    5.18702338007689
H         3.59871633704108   16.15639784551703    6.08625720483879
H         1.85834751941800   16.00073867392969    6.36280516118977
H         3.58814266204315   16.35463890811599    3.08928594417955
H         3.45326961330351   14.66680991762698    2.61554809417344
H         4.59575849163259   15.13255204016146    3.88730278989193

