50
CSD_code = COSKEC | q = 0 | S = 0 | Stoichiometry = C12H25B10RhS2 | MND = 7
Rh        0.86429158649809    1.58326300145627   17.16890561183022
S        -0.08651931013248    3.60258371398925   17.57607107376032
S        -0.25495011569327    1.26448302887883   15.21814108786865
B        -1.32220002385171    2.76035392714235   14.91508621495563
C         2.20798373905361   -0.19522099113436   17.12520003215448
B        -1.23441156659865    3.99586998894909   16.16229468858142
C         2.55516489020172    1.56059890064026   18.61408746786935
B        -2.96501327633713    2.78198212357523   14.21714484112868
H        -3.55100532605675    1.91038698420947   13.69398091415551
C         1.27501966585239   -0.32282851318064   18.18917555178939
B        -2.82160658631982    4.80729448598207   16.26221354573062
H        -3.30683276650873    5.35953026155145   17.17672765430063
B        -2.76169805788082    3.04988831205617   15.96823414120607
H        -3.08983281230646    2.26006254765302   16.77321173146975
B        -1.62470434172514    3.56330259917462   13.34939290488995
H        -1.35183140565469    3.19248943110705   12.27014318692145
C         0.88593212909390    0.89737024832547   20.47790066606688
H         1.51213556435757    0.39322603894755   21.21720793218584
H        -0.10424413181192    0.44949216564245   20.50601328652961
H         0.80119804312264    1.94469165191840   20.75745618158242
B        -1.48152337499195    5.58855185741224   15.39431165495765
H        -1.10781019172218    6.64145530085285   15.75275093875299
C         1.50358510590003    0.76090182807406   19.12256837295330
B        -3.88572284815096    4.02816935202540   15.07810282001177
H        -5.05692803367450    4.09294997424555   15.09570638173015
B        -0.54152479227345    4.34424150675775   14.53027377539432
H         0.61968658383961    4.42229685204956   14.37168395325537
C         3.20963951377109    2.69099432649150   19.34413860694462
H         2.46194889644450    3.35537574208316   19.77218867319448
H         3.84421195416303    3.27176449978421   18.68077460537561
H         3.82484836663798    2.29687893802087   20.15528515918659
B        -1.69130951411000    5.30770444432544   13.65693788199374
H        -1.56090738481689    6.13147633393669   12.83193202301596
C        -3.03512303211819    5.47245270151675   14.71105163019858
H        -3.64726261654352    6.35164019087577   14.55751407409655
C        -3.11426913003444    4.35199168001206   13.57975237219138
H        -3.77402195115528    4.55845832212894   12.74707117943707
C         2.41166938904680   -1.20336369922980   16.03736916197838
H         2.73778620363218   -2.15051314624311   16.46959668673436
H         3.16453822191948   -0.86665321776583   15.33089576341449
H         1.48454986860289   -1.37435068691549   15.49265329301851
C         2.96533839737862    1.00012671626118   17.34941862107681
C         0.38329378537564   -1.50179716592945   18.41752355010276
H         0.06792216202922   -1.93267318606899   17.47048766747718
H        -0.50117156414094   -1.22368687609279   18.98601977844392
H         0.92552619624431   -2.26478381079703   18.98062699715699
C         4.14511390692283    1.44940393901313   16.54511121550102
H         5.04791056203212    0.95989895708333   16.91709914448132
H         4.28333855778877    2.52549940778806   16.62148956199169
H         4.02169086470140    1.19356901142111   15.49537574095602

