33
CSD_code = COSNUV | q = 1 | S = 0 | Stoichiometry = C11H17ClN3Pd(1+) | MND = 4
Pd        6.52244103809668    0.18191671502858   11.42363447559835
Cl        4.52109518460086    0.72373856437321   12.21719435576264
N         7.45417461237760    1.04619625732518   13.00112161834575
N         8.43652593788735   -0.28676738809598   10.94957794431260
N         5.63113598031064   -0.68608084222238    9.74208784413928
C         6.92677985810188    1.74388506628567   14.00119954872425
H         5.85024235114758    1.87089967303111   14.00083628717720
C         7.70312877695256    2.29076475452364   15.01442295585562
H         7.22895766132609    2.84929609797894   15.80481065120827
C         9.07813104046118    2.10683724777720   14.99245866871080
H         9.70351342708902    2.51894213592389   15.76851378232667
C         9.63317098256529    1.38241320813430   13.95140856293414
H        10.69683834003541    1.21513366702363   13.89139622225463
C         8.79498662639239    0.86502789054713   12.96447251900259
C         9.27775485789428    0.10209663432233   11.83673394735449
H        10.34016542970664   -0.12583598295440   11.76395591879642
C         8.88400901237475   -1.05676840936676    9.82112448250103
H         9.77565379354535   -1.64075988118054   10.08050143917129
H         9.15989732305331   -0.36338643105129    9.01593013918495
C         7.76896639793728   -1.98207936121968    9.33410942038137
H         8.17868987907830   -2.63174988251972    8.56052416475919
H         7.44220118564083   -2.61619513029425   10.16309973291575
C         6.59192853500143   -1.20132254754030    8.74459367783485
H         6.98715493891148   -0.35250216976290    8.17674788290608
H         6.04829838175587   -1.84837759076906    8.04419450598381
C         4.80365045132492    0.33676720692638    9.07704420474462
H         4.37115828969788   -0.06277530624533    8.15406222122966
H         5.41552868067248    1.21196844237841    8.83602091847924
H         3.99334572520825    0.64888864209792    9.73525546224392
C         4.76269287071733   -1.78311989594053   10.20317977654048
H         3.98678025386840   -1.38842638053571   10.85963209021025
H         5.34139145614029   -2.52394230649628   10.76078924933626
H         4.28331072012625   -2.27578269748301    9.35086532907385

