38
CSD_code = COSRUX | q = 0 | S = 0 | Stoichiometry = C16H19CoO2 | MND = 7
Co        2.58857902058070    3.22551216691347    1.63630492053822
O         1.64163164923683    4.44898083910485    0.71606542651213
C         0.76834431815713    3.93543179502582   -0.11927957068622
C        -0.10447079346776    4.64447118011943   -0.95092854585304
C        -0.95443083380572    3.92468308409066   -1.76157343696460
C         4.46275136807792    3.94393716352906    2.10470604579023
C         3.51618627683864    2.06955150149092    3.06909431355206
C         2.92343073685390    3.22566559298088    3.66895413711500
C         5.41616710487758    4.82682806615621    1.36554830181575
C         3.30484001395336    0.64736893528574    3.48061201356242
C         1.99426895122991    3.22583688680706    4.84041169163168
H        -0.10223756167667    5.72366237914332   -0.94683567761053
H        -1.63905317918585    4.44873530442663   -2.41238378229001
H         6.28494626867303    5.03031157897696    1.99480379656269
H         4.94925312420413    5.77550366385155    1.11360366281356
H         5.76183850918845    4.35619514846799    0.44865884661034
H         4.12864823299522    0.32302915986781    4.11881973594901
H         2.37570124539076    0.53210472493217    4.03137941900302
H         3.26931086411419   -0.00301660467856    2.61008988253737
H         1.35834719739476    2.34397601985467    4.83857630895345
H         2.57628487241280    3.22588613670112    5.76433678144146
O         1.64323248139501    2.00206081061808    0.71442758737916
C         4.46262174099503    2.50682990348034    2.10482392369004
C         3.51638251260680    4.38153998389299    3.06892639490241
C         0.76928175479238    2.51558502512184   -0.12024115534516
C        -0.95353785831107    2.52628215265992   -1.76249122431308
H         1.35846965626631    4.10778437784098    4.83840364076458
C         5.41584893132033    1.62364545926141    1.36577009952015
C         3.30524805009388    5.80382798909802    3.48018833701717
C        -0.10262219837389    1.80651957614771   -0.95282733616460
H        -1.63742487477800    2.00221136432336   -2.41404956085266
H         6.28458821231291    1.42003822942071    1.99503952252715
H         4.94871063596695    0.67505411178322    1.11393084771183
H         5.76160831445782    2.09409521743175    0.44882136068067
H         4.12904848019648    6.12813930727322    4.11842097544671
H         2.37607264664551    5.91932831612034    4.03084148475068
H         3.26989237493053    6.45407566482696    2.60955665881115
H        -0.09895824655978    0.72732778765186   -0.95020582750960

