40
CSD_code = COSTIN | q = 1 | S = 0 | Stoichiometry = C15H20N4Rh(1+) | MND = 6
Rh        1.30492316155985    3.47330183849997    2.37718710981376
N         3.94677425788034    3.42318726541728    3.65911282883790
N         3.08372059914977    4.27397276031283    3.08361096606349
C         3.58705813183499    5.48771065916401    3.24267803779788
C         4.80092746729043    5.41999197161691    3.93432404146488
C         4.99431815451773    4.08460885723096    4.19142394900932
N         2.43023895154449    1.89731858503323    4.57476652811033
N         1.28496872462780    2.46632351095159    4.17134637698797
C         0.40985434911499    2.29547415847948    5.14907152540941
C         1.00329700622692    1.60211326431848    6.20897877385513
C         2.29745704758180    1.37144044941592    5.80909913164381
C         1.73738834565745    3.90008684651226    0.31242388502674
C         1.06167142742081    4.97310026094787    0.87140117630123
C        -0.40439978630494    5.27759149083832    0.69538334111260
C        -1.30624610895258    4.03970869517265    0.84900160180404
C        -0.74191217374655    3.05795398938027    1.84938360201905
C         0.05562362392390    1.97733331270094    1.50461898186087
C         0.54628275424222    1.66998103761032    0.11070904515769
C         1.10187569587161    2.90185879966721   -0.62980589574241
C         3.60172857340988    2.02820828952824    3.74727364367010
H         3.08620607658001    6.36198080518544    2.87591866615029
H         5.43887613988871    6.23487862005470    4.20340604875721
H         5.79253785413653    3.57577341024308    4.69190100273100
H        -0.59511640173577    2.66305344668372    5.07721326244127
H         0.54536669437041    1.31382905105703    7.13133429242334
H         3.10379674070893    0.86951301710118    6.30345683287134
H         2.82228291358736    3.98202862868750    0.22430902704193
H         1.64981263135964    5.84591039878798    1.15288802738852
H        -0.55980578898131    5.73811798363386   -0.28447756641286
H        -0.68663491513414    6.01906767164205    1.44681855926557
H        -1.44484590727781    3.53894108922149   -0.10812084861313
H        -2.28949086509268    4.36625047427412    1.18850405611670
H        -1.30203560800419    2.99091661045071    2.78137424578546
H         0.04384602529059    1.10601037329098    2.16247471495884
H        -0.27175823119180    1.22614627377133   -0.46358248720782
H         1.32984374887497    0.91126215884115    0.18327396747523
H         1.85028046647796    2.56693773974743   -1.34866856397852
H         0.31420501883667    3.39868476059468   -1.19421527191645
H         4.43072462530673    1.46301671209948    4.17775852219395
H         3.36575857915817    1.65501473183236    2.73384486233055

