41
CSD_code = COSVOW | q = 0 | S = 0 | Stoichiometry = C16H22BrNNi | MND = 7
Ni       14.04931253479997    4.67532839026678   12.60036077501811
Br       14.78185582245644    2.77360587909766   13.38963210556737
N        13.44860217051250    5.72408567310855   14.33380648874353
C        13.40337977260227    6.31999669635526   11.66165219730301
C        14.65148557246853    5.94653604149420   11.13948648945920
H        15.55965142363403    6.52768354375989   11.19639077915597
C        14.53062450080008    4.62825574983691   10.62376383089122
C        13.09092149490951    4.34077105922495   10.50237417640014
C        12.39233409371971    3.30397112569203    9.90395417965218
H        12.91105835282091    2.47969294044033    9.43756012343509
C        11.00513474016044    3.34602216496202    9.92374858450536
H        10.44501294942143    2.55253015381469    9.45218445526885
C        10.32364123416371    4.38971521420242   10.53475764309766
H         9.24362279278981    4.39597881078355   10.52739730817897
C        11.00545113015895    5.42617457210770   11.15629302591047
H        10.46137420373461    6.23573878454322   11.62376555363116
C        12.39204522255842    5.40783038917729   11.14019197569443
C        13.11257584793304    7.47062356730407   12.57986845933747
H        12.33352925498795    8.11518463644057   12.16439283471074
H        14.01213382689284    8.07356735198291   12.72409794701967
C        12.62370284323282    6.88100654868476   13.91377912697453
H        12.61258098273002    7.64407575089696   14.70647432292099
H        11.60182296660732    6.51905369024426   13.77518412068037
C        12.70880780118761    4.94132488993838   15.32809152728055
H        13.32448647710493    4.10889108524620   15.66624337461627
H        11.80215110379281    4.53355162193763   14.88076630280790
H        12.43713349830471    5.56194604977291   16.19140865022874
C        14.69861921174600    6.19270706120955   14.94700010452648
H        14.48821953818609    6.79832495556023   15.83861352242794
H        15.26900465647974    6.79674276157139   14.24085549530099
H        15.30469685130254    5.33375303313474   15.23838327749809
C        15.58915719446505    3.85074298823177    9.89434488141906
H        15.34248768568890    2.78533268241785    9.96315808970968
C        15.56149960462415    4.26770943554715    8.41807078776001
H        14.57671872867580    4.10196698770104    7.98630377591298
H        16.29013831826511    3.68743950169654    7.85715710843968
H        15.80780578136599    5.32345381026182    8.31817531138034
C        16.97910333693173    4.06026613938673   10.49256754772916
H        17.31764788442449    5.08432729585426   10.34627880256273
H        17.69403989472160    3.39407453811349   10.01649852642069
H        16.96432869863786    3.84071642799754   11.55956641042279

