49
CSD_code = COSXUD | q = 0 | S = 0 | Stoichiometry = C22H22N2O2Pd | MND = 4
Pd        4.43951854991912    2.23850920668761   11.68169459541408
O         2.93066298488522    2.00544559236715   12.99237432332002
O         5.50188174151410    3.08729133671086   13.16497699558979
N         3.46379328192653    1.36204111126699   10.21395883497614
N         5.85945327700526    2.50709970049740   10.34431295654149
C         1.80798827281052    1.50033193578633   12.67371584040846
C         1.45206193942072    0.95291772440549   11.44149139186054
C         2.25969675899084    0.84695122414082   10.29618123563051
C         4.29623262432310    1.13825270802625    9.04426298616054
C         5.43093165107661    2.17229742752495    8.99706252778448
C         6.99665983197654    3.12834441157571   10.55424850135963
C         7.42335054118950    3.54737473759680   11.82566206182006
C         6.69850159297757    3.49151761181548   13.01630246677733
C         1.67386965124441    0.09899345802788    9.12282619586018
C         7.92323300314207    3.41922550448542    9.39872486190177
C         0.77853364539547    1.52223243927380   13.75168023591830
C        -0.17027257976917    0.51699117023387   13.91327139622851
C        -1.09326251637148    0.58811927991338   14.94102472440401
C        -1.08290701847130    1.66018697267390   15.81783802996189
C        -0.13226861393637    2.65725529944870   15.67342146439893
C         0.79601875116866    2.58487617030511   14.65279245382768
C         7.34723240374901    4.01370665757000   14.25231923775620
C         8.71378902033430    3.90294768442605   14.49252914497616
C         9.25803056107203    4.39887020318621   15.66347221813909
C         8.44913701126857    5.01024719411392   16.60707979665178
C         7.08573429956121    5.11029805922444   16.38303070552688
C         6.53806058596636    4.60932257340669   15.21786312836586
H         0.44647034487729    0.57448640851023   11.35247404341774
H         3.71759699528662    1.20732930866471    8.11461827027339
H         4.72798123307530    0.12755301556066    9.10252052223462
H         5.06946063692780    3.08486077965345    8.49884200885784
H         6.25633854882557    1.76433288975250    8.39996045791224
H         8.39934647338261    4.00289220150511   11.87505935365682
H         2.32230686348452   -0.72840934582303    8.83746765072468
H         1.56564142392520    0.75967295289447    8.26278020339050
H         0.69527618744041   -0.29781266463707    9.37313029807606
H         8.78773288045252    3.98297766051415    9.73438761220269
H         8.27290339980651    2.49148561882318    8.94593604878362
H         7.40676269792141    3.99714695541897    8.63334085202550
H        -0.17294418204252   -0.33742738020555   13.25307786688162
H        -1.82244331998713   -0.20009612324118   15.06207452387433
H        -1.80839234938994    1.71281066413096   16.61655585431197
H        -0.11413845903733    3.49014953856427   16.36113940522697
H         1.54935012284511    3.34911932059054   14.53349409825820
H         9.35136443221368    3.40631994153674   13.77646076957680
H        10.31929643146159    4.30430290561368   15.84355930401145
H         8.87990009779371    5.40020401975041   17.51774250885832
H         6.44963301444280    5.57736150953863   17.12086029668274
H         5.47609527392772    4.67019242819125   15.03319973919991

