60
CSD_code = COSXEN | q = 0 | S = 0 | Stoichiometry = C31H25MoO2P | MND = 9
Mo        0.31138473248601    4.53857240256991    2.71067198947559
P         0.74990222322294    6.61018162018719    3.72823135468434
C         0.05136759752717    8.12471695679968    3.00502427693079
C         0.48627971511650    9.37472100452181    3.44262263817301
C        -0.05279606261130   10.52471539780594    2.89865601482885
C        -1.02805728289184   10.43797129510051    1.91660575596186
C        -1.46475686370533    9.19842676451131    1.48081361185165
C        -0.92695209950579    8.04434556301250    2.02412657592894
C         0.12728260377362    6.67094943835947    5.43280563204405
C        -0.84031869865313    7.56762806957059    5.87124480672403
C        -1.32617086214596    7.48368074387026    7.16563321273022
C        -0.85360190652728    6.50958545168282    8.02798616918372
C         0.10137268486618    5.60346481284537    7.59111696774999
C         0.58126899226947    5.67474725706330    6.29733491891637
C         2.48782564035845    7.12156043884646    3.88093580262534
C         3.12262387042702    7.46370225466682    2.68731508784585
C         4.46202180281876    7.79945204312576    2.67998937236078
C         5.18310556084477    7.79172091596135    3.86463474764535
C         4.55448812201407    7.46440141570349    5.05262536161630
C         3.20954285617715    7.13298799729060    5.06695894863365
C         2.30486453669332    3.44215730204436    2.11428417714567
C         3.24337667161995    4.04339132451986    1.26254194673983
C         3.90240704511771    3.30713331386017    0.29726340145404
C         3.65242918329016    1.94948930886687    0.16380268917474
C         2.77378109355072    1.32583399908066    1.03322435900858
C         2.11951859629039    2.05921871431311    2.00817419378014
C        -1.13352663648444    2.77972855944226    2.16365098956484
C        -0.85782202434530    2.74214543704486    3.56234207886807
C        -1.37491863377179    3.90651986817662    4.13777680298115
C        -1.95616299379866    4.69029293474590    3.09306929674613
C        -1.84730688871436    3.95697042420701    1.89535748294845
C         0.80781182855045    5.53169000868529    1.14368813865675
O         0.99552748093107    6.08563158415234    0.15082727164961
C         2.06888889232865    4.15688194166520    3.51237086193827
O         2.88632065420416    4.07479893788655    4.37260459878435
H         1.24743844109971    9.43467680345647    4.20976846915228
H         0.28750715613606   11.49216343871884    3.23844361978521
H        -1.44518532686533   11.33851130603463    1.49035774316208
H        -2.22264035346231    9.13109306121289    0.71396986383867
H        -1.25368445501693    7.07002756975174    1.68365082996292
H        -1.21662812453245    8.32947790369891    5.20287540657715
H        -2.07955465083914    8.18222696875650    7.50036223745074
H        -1.23408304312859    6.44977493942845    9.03721696291321
H         0.46461602421896    4.83614229648720    8.25964959393337
H         1.30972087725172    4.95783454909765    5.94241472917821
H         2.54900511731330    7.47280711765137    1.76825479041402
H         4.94744003783730    8.06445134686139    1.75164766030392
H         6.23330825648258    8.04393119665325    3.85899995733564
H         5.11359581341150    7.46306963314046    5.97693588237166
H         2.72743245603184    6.88677313311172    6.00129605409699
H         3.47207997489904    5.09465839301098    1.39285392991179
H         4.61385150025116    3.79211261525684   -0.35460570834004
H         4.15788053549695    1.37695208620537   -0.59959533620808
H         2.60121484960647    0.26177227632677    0.95713287521704
H         1.48735547308554    1.54516090262155    2.72102830386801
H        -0.98469643605665    1.96276502381503    1.46758495723152
H        -0.47859565805382    1.88699629295642    4.10740804865619
H        -1.46312682585135    4.11718681328503    5.19536628530597
H        -2.59161079637159    5.55455757650219    3.25441820606994
H        -2.27934227418015    4.22986125376004    0.94105310249832

