23
CSD_code = COSZES | q = 0 | S = 0 | Stoichiometry = C6H6N8PtS2 | MND = 4
Pt        3.08950927090897    3.99220636973489    4.49426403397974
N         2.87646565295560    5.41595542425643    3.16181251954316
C         3.49349912482248    5.47500277403695    2.01330324804140
H         4.24134870576428    4.77034722384583    1.69542800959125
S         2.99859696617033    6.77552339019714    1.02011949027039
C         1.89925011391953    7.26003975794657    2.24503724191708
H         1.27047353295381    8.11656780186101    2.11469924241135
C         1.97168906398558    6.42201387718197    3.30760142395618
H         1.39538812595201    6.49208924185420    4.21621833339860
N         4.22178122807338    5.20341954252522    5.60881954488016
N         4.70984350282641    4.97352590545842    6.65151534195692
N         5.22113760193025    4.86246436431625    7.65911757920746
N         3.30282615810793    2.56811330220535    5.82632499376822
C         2.68387616996885    2.50716822971755    6.97366151379162
H         1.93562252663765    3.21138726802776    7.29161580061523
S         3.17677667784518    1.20475501379272    7.96535143662135
C         4.27828716513296    0.72231107168529    6.74150329501576
H         4.90663284888806   -0.13461898918237    6.87133396053841
C         4.20776999503894    1.56223411509301    5.68030850020826
H         4.78568532950581    1.49380531345482    4.77260727741395
N         1.95690125460099    2.78111179135849    3.37998084793368
N         1.45951647272994    3.01448020053299    2.34259862096428
N         0.93992251128232    3.12849701009983    1.33967774397765

