96
CSD_code = COTGIB | q = 0 | S = 0 | Stoichiometry = C50H39CuO4P2 | MND = 4
Cu       13.30308409650342    9.05245937664564    5.67211626011593
P        14.41222171518005    9.73597394992607    7.44347795599371
P        14.20313646634704    9.01439486859385    3.54647365242328
O        11.82228318322893    7.72891119730162    4.99699583900989
O        11.46016760032741    9.84562968225900    5.36996808890483
O         8.94852450396892   10.53089376440963    5.53052583531933
O        10.09697108664271   11.80041992824552    4.05968461341490
C        13.81637787635029   10.21868255574167    9.09743141583061
C        14.15422152157233   11.40810320771118    9.73213622380587
H        14.80563498763524   12.11707246141713    9.24110168171541
C        13.65303515233311   11.67835876823655   10.99343065353759
H        13.92195331833356   12.59907574048712   11.49113783389194
C        12.80916257388600   10.77574431727098   11.61968089746053
H        12.41975391494851   10.99459602762700   12.60328165721866
C        12.45627553137838    9.59656915058679   10.98141986276955
H        11.78934262249802    8.89809708566896   11.46561966000393
C        12.95442515792806    9.32061298773673    9.72255340369582
H        12.68175197621607    8.40970714618605    9.20491584977661
C        15.17409172980960   11.26454827537810    6.81204841903571
C        14.41083594813383   12.00795427276363    5.91585472916779
H        13.42203264762996   11.65632517038513    5.64842311086490
C        14.91472114771868   13.17646782873013    5.37721539057558
H        14.32096363585457   13.74874819734440    4.68056391793973
C        16.18595842237306   13.60442955272578    5.72320577474189
H        16.58395459277823   14.51439422454160    5.29890939333920
C        16.95206307839886   12.86274597295604    6.60790330021241
H        17.94514025206391   13.19614362455435    6.87333440994411
C        16.45234198671839   11.69345262658086    7.15296913050789
H        17.05477418753794   11.10925593521383    7.83528481269552
C        15.86682687281126    8.70961397480716    7.83163832335201
C        16.31364370491139    7.87586624658186    6.81046326913291
H        15.76483676476168    7.85981474495203    5.87489131590434
C        17.42234541872475    7.07315969021021    6.99609330706206
H        17.76270133251165    6.43144175661421    6.19643110502648
C        18.08458561429623    7.08738893373649    8.21410416002842
H        18.94793833320685    6.45691909499978    8.36698877006148
C        17.63285271441138    7.90103244192675    9.24049251262857
H        18.14549125008056    7.90361238785399   10.19165231687857
C        16.52690007753684    8.71255566788559    9.05542918101567
H        16.17372822471522    9.34387905165873    9.85917058025076
C        15.14255349096095    7.50194111226000    3.16034125616937
C        16.26137420722644    7.46569371121376    2.33655829673934
H        16.61427633520017    8.37041711784875    1.86231959915352
C        16.91927890158080    6.26633563899128    2.12684022989144
H        17.78873009996721    6.23810093168747    1.48579605699155
C        16.46739750822906    5.10473296245648    2.73207900888717
H        16.98744284040209    4.17281604248449    2.56420622154183
C        15.35006298578696    5.13772185782638    3.55239526218099
H        14.99780933882591    4.23204091378526    4.02409266968757
C        14.69120438772526    6.33289101821102    3.77138301035649
H        13.81843027295989    6.38300497198897    4.41076721517865
C        15.34775320782149   10.33092329837215    3.02156672689714
C        16.52082686339963   10.45647906703657    3.76514630584116
H        16.71902126729493    9.75287462738696    4.56401971623583
C        17.42142795033823   11.46380830055466    3.48475968418450
H        18.33211491389917   11.54771670251084    4.05955962273947
C        17.15141398744318   12.36999257459677    2.47070289233988
H        17.85228982560303   13.16240666592145    2.25308410209181
C        15.98137488074343   12.25883329630260    1.73919715126102
H        15.76953773729470   12.96468653934703    0.94898375487661
C        15.07918237650847   11.24463685525684    2.01036778337734
H        14.17023061654245   11.15945850860118    1.43210317471310
C        12.89076501861795    9.01321909610552    2.29269795517084
C        12.66131501431064    7.94742400020972    1.42931459726202
H        13.33996726686323    7.10586529480575    1.41347553984282
C        11.55592107725030    7.96338689908347    0.59720885871223
H        11.38013499417358    7.13312478887310   -0.07226455866470
C        10.66936422178913    9.02753394086081    0.62912765480547
H         9.79893652234789    9.02412725152906   -0.01057116670201
C        10.89233207250526   10.08922553738705    1.49074599592738
H        10.19923317211893   10.91427396976892    1.54410804454994
C        11.99557008946644   10.08163012203561    2.32206255855416
H        12.14665295083807   10.89619034898698    3.01775759000003
C        11.07437938408070    8.72863438979834    4.92921501374663
C         9.72600913271316    8.60672904452253    4.31770270751768
C         8.71664311471571    9.52652514388210    4.61152475533036
C         7.46033711936035    9.39235580706635    4.04168718224710
H         6.69278608840570   10.10950513674505    4.28953872664580
C         7.21263448285026    8.35051410711516    3.16547713703646
H         6.23528382671969    8.25411983753791    2.71567034546346
C         8.21046546693751    7.43792616716605    2.86172903942149
H         8.01279885058354    6.62853546804593    2.17484089716102
C         9.45735872640184    7.56175472290411    3.44295312902512
H        10.24811002014534    6.85794835774439    3.23153004804526
C         9.89855046275712   11.45193094057595    5.19828260165376
C        10.47310436060928   12.12493438866957    6.39114961318027
C        10.30132559049835   11.61704375710391    7.67393477496909
H         9.70516174604736   10.72960356642297    7.81824999559519
C        10.90157283666414   12.24574961071658    8.74833713987728
H        10.76956194235497   11.85218346346504    9.74580474066118
C        11.67971902089036   13.37502874937909    8.55000363195912
H        12.14821106766999   13.86044379034310    9.39392137641723
C        11.85739836220629   13.88106051579964    7.27309263071757
H        12.46835169591744   14.75891313463083    7.11903714199264
C        11.25535302395683   13.25850617265649    6.19603611062951
H        11.37970605893904   13.63338787469121    5.19082983438082

