79
CSD_code = COTHEZ | q = 0 | S = 0 | Stoichiometry = C36H36Cl2CrN4 | MND = 6
Cr        0.00097932844853    0.00569378134701   -4.02560533659100
Cl        0.00007399551315    0.00635292623539   -1.59500414204718
Cl        0.00341339950171    0.00613731190644   -6.30611131536351
N        -2.47335322174568   -1.70419168909266   -3.39854625105850
C        -1.57655499151328   -1.08335205172819   -3.82162217986629
C        -3.51274455000834   -2.32317858853798   -2.78933623890993
C        -3.90520654300319   -3.59465835134001   -3.22578693007312
C        -4.96288385391130   -4.20738183278775   -2.57465269543355
H        -5.28427440801226   -5.18774106930983   -2.89413391510249
C        -5.60643746649617   -3.57727460121115   -1.52246946755122
H        -6.42832151188731   -4.06962022619161   -1.02478871206437
C        -5.20243097887036   -2.32019581064163   -1.10427750296582
H        -5.70926497208000   -1.83768545659967   -0.28167034923670
C        -4.15173968884136   -1.66672771983946   -1.72692259467012
C        -3.69026804356334   -0.30903649320753   -1.30428729360270
H        -4.24312660295986    0.03482192892277   -0.43451957500875
H        -3.82960634175744    0.40953881691193   -2.11348641486900
H        -2.62564567875561   -0.32020539236571   -1.06529147715700
C        -3.18371249013474   -4.24433534209052   -4.36518882625611
H        -3.24324804162098   -3.62308992660946   -5.25894525987508
H        -3.60936879497697   -5.21941894485714   -4.58600425915375
H        -2.12662889704268   -4.36880395832777   -4.12762918983399
N         2.47955369769672    1.70885184758422   -3.39675523110917
N         1.70825387665955   -2.46977817597286   -3.39684199350456
N        -1.71285590021638    2.47815157516850   -3.40052377871219
C         1.57932051538266    1.09207561648031   -3.81856915308779
C         1.08952173001287   -1.57143785782385   -3.81973351715468
C        -1.08932274107762    1.58208295263699   -3.82121283419402
C         3.52352566860191    2.32136116668802   -2.78883642421378
C         2.32456275413222   -3.51161008828598   -2.78920027957246
C        -2.33459587388985    3.51701207290617   -2.79325542924655
C         3.91793599637655    3.59351498966315   -3.22173315844064
C         3.59594134691806   -3.90521289261497   -3.22490676626047
C        -3.60696022317215    3.90493279213677   -3.23136068550339
C         4.98051212176222    4.20020555287292   -2.57306825437918
C         4.20568769181104   -4.96589800791426   -2.57588637208316
C        -4.22343023261750    4.96182997211576   -2.58262387820933
H         5.30340763141079    5.18098641754100   -2.88972972440610
H         5.18575695465864   -5.28848460572223   -2.89507288091737
H        -5.20445099150091    5.27979869226382   -2.90349069658611
C         5.62704646273810    3.56338431276877   -1.52670401150075
C         3.57280960017470   -5.61119113169013   -1.52643050669970
C        -3.59602139387457    5.60905631475484   -1.53103274170820
H         6.45272351550285    4.05103759328051   -1.03069653812770
H         4.06269613295097   -6.43567292787915   -1.03063836448709
H        -4.09107705558904    6.43055120415285   -1.03538785559480
C         5.22101286202970    2.30583203709546   -1.11192352728933
C         2.31600133951987   -5.20579207583393   -1.10869602953814
C        -2.33813097759114    5.20946087153739   -1.11108935277115
H         5.73019989560695    1.81830495533137   -0.29372450649236
H         1.83133842004714   -5.71410524456348   -0.28826775209247
H        -1.85777337954528    5.71930073619326   -0.28906627122426
C         4.16519666162888    1.65834170085408   -1.73223973570293
C         1.66548539590313   -4.15205198109143   -1.72927348303012
C        -1.68102027062847    4.15956776527422   -1.73130863826789
C         3.70113097869977    0.30039817112654   -1.31307335761041
C         0.30803215795542   -3.68907499679677   -1.30735527623182
C        -0.32262773468770    3.70228367512994   -1.30630030709842
H         4.25584236518299   -0.04830535182826   -0.44640771970490
H        -0.03616685955547   -4.24035912809093   -0.43672764606532
H         0.02048001701269    4.26030305130850   -0.43950582755319
H         3.83574177191176   -0.41553657308789   -2.12539812831413
H        -0.41053561959553   -3.82957770132724   -2.11636227736290
H         0.39570911188997    3.83801227495258   -2.11633639035931
H         2.63734632815835    0.31381220590996   -1.07056180437112
H         0.31959881308741   -2.62408761712109   -1.07014357219028
H        -0.33242642658736    2.63891516054868   -1.06156436324272
C         3.19271799945406    4.24948629982820   -4.35512638613073
C         4.24870575480660   -3.18133054811182   -4.36103045765007
C        -4.25295168373767    3.17945560508295   -4.37032166581423
H         3.24844208362705    3.63253764524394   -5.25214897885138
H         3.62426471616198   -3.22829812592849   -5.25329487225691
H        -3.63531233765796    3.24814931381571   -5.26595421705223
H         3.61813395349854    5.22537325185514   -4.57285001697024
H         5.21929345620444   -3.61404861278934   -4.58788273842193
H        -5.23317794211100    3.59534489387576   -4.58693832120550
H         2.13664792868466    4.37327853313580   -4.11285397935766
H         4.38371164284794   -2.12725169320094   -4.11579937205792
H        -4.36510135336987    2.12046680598517   -4.13530202531951

