39
CSD_code = COTMOQ | q = 0 | S = 0 | Stoichiometry = C12H10BF9N6Ni | MND = 6
B         8.38858184817447   10.05309254707027    3.70784549012657
H         9.56620656591077   10.05310877267524    3.71472287429717
Ni        5.27115089015734   10.05303919930053    3.68573188045394
F         5.20898329931494   12.37984208726010    5.04819531041171
F         3.45891225639003   11.24452364665462    5.48894600485874
F         3.60941748803346   12.29713602689425    3.64094591367842
F         2.73036992512057   10.05299663503851    2.66121660672135
F         4.11398527382048    8.99352491009909    1.41592005459699
N         6.48748097910938    8.65696431087860    2.85566921825005
N         7.80917880435226    8.82523557411917    3.00031133382598
N         7.79561501670751   10.05313040789792    5.12319755012893
N         6.47055974514524   10.05296011448065    5.29213243166535
C         6.29347357582185    7.47808870923217    2.26662065877098
H         5.31767193812050    7.09770512927938    2.04208983585082
C         7.52074279350380    6.87785532282378    2.01400642544659
H         7.69316424935956    5.93051683986574    1.54849039016696
C         8.45484681466648    7.76977237320454    2.49911141313420
H         9.52422940874235    7.71837524322188    2.51785571456466
C         8.39785995140848   10.05308675482122    6.31437275869926
H         9.46573813061961   10.05320601830223    6.39328825726406
C         7.42489261614603   10.05287290651525    7.29451610164235
H         7.56042192160373   10.05277310974789    8.35545461460494
C         6.22160502555432   10.05280939452020    6.59958345959145
H         5.22109759208681   10.05262515935643    6.98799941955642
C         4.30930664508486   11.52580289078152    4.49298971464502
C         4.01146558451658   10.05312005787547    2.24101200359887
N         6.48744183092707   11.44919721385089    2.85576349190875
N         7.80915172397091   11.28086533531974    3.00020616626754
C         6.29340885165454   12.62800682880532    2.26658411976818
H         5.31759588222420   13.00843805183447    2.04218481891535
C         7.52067295918469   13.22813910868629    2.01369748409270
H         7.69307261289432   14.17538590943384    1.54798280996748
C         8.45480290754252   12.33621949942540    2.49874786315326
H         9.52419290795704   12.38755091922251    2.51728818598431
F         4.11379188928179   11.11283663470470    1.41605892426296
F         5.20871685062336    7.72619784427835    5.04821215154150
F         3.45849530369735    8.86148339056413    5.48850660487751
F         3.60952228826721    7.80888497950907    3.64055502756545
C         4.30917565230343    8.58023014244862    4.49278691514319

