128
CSD_code = COTMOO | q = 0 | S = 0 | Stoichiometry = C44H73MnN2O6Si2 | MND = 5
Mn        2.88171019622914    5.72408126858872    0.31096803628740
Si        8.73189539019081    2.84670338249368   -4.34333000500177
Si       -2.13351104451449    8.02300933703020    5.72077546180214
O         3.43900999262104    4.12721816156847   -0.25498291205699
O        -2.35296157963053    7.29214111130930    4.26371776040075
O         7.36808259080496    2.32304697190656   -3.59668371500697
O         3.28281727995804    5.19491694098894    2.23145666262544
N         4.55260708603496    6.47826266166957   -0.22654152390785
C        -1.66158067929249    5.62637656592123    2.74641974826316
H        -2.49127316701607    5.05140007227236    3.12148739615198
C        -3.83815768133290    7.72224308192713    6.55471649450047
H        -4.48034535844016    8.57660932115404    6.31786020812848
C        -1.14284557218007    3.78032786697206   -0.30237554838218
H        -0.26767712629675    4.24044392796829   -0.75094899831055
H        -2.01868624637902    4.36874643608064   -0.57037651760414
H        -1.25635726012556    2.78110076593131   -0.71677942972671
N         2.53188468931345    7.59277927698648    0.77841693212779
C         3.66014457217651    5.94824667222631    3.19050216299239
C         3.52559544620866    8.55906365142448    0.35280262345215
H         3.59258627855001    9.39752712847882    1.05318791765940
H         3.24426723267127    8.93654361952377   -0.63983593997277
C         0.45872172120395    7.19305989332685    1.92455338492033
C         3.28490742130370    1.38397844127629   -1.09853205379244
C         6.41746756165734    4.13100919627019   -2.33066197961972
H         7.20691354193187    4.80692919227900   -2.61546109782398
C         5.38519894999229    4.58857331318942   -1.49227155655832
C         5.38761315141753    1.96823685200565   -2.38397003782729
H         5.44358486506010    0.96322229414715   -2.76666549919469
C        -0.82237911991943    5.11182437883227    1.77981622885456
C        -1.00413028856100    3.70806224488759    1.22408787401661
C         1.54936461576390    8.01487813951417    1.49792246259401
H         1.51815804478147    9.06146484234104    1.80336201292066
O         1.13373979427953    5.49458884412105    0.44895389988748
C         4.37208039990170    2.35015946788863   -1.54335748914418
C         9.39763478944207    1.15105924329488   -4.94431403110975
H         8.54741144571609    0.63062671993386   -5.39843437153828
O         4.04499905704906    7.10483670914173    3.07491731867168
C         6.41666708640711    2.83921448972210   -2.78413760924257
C         3.58424069234583    5.27657766301112    4.56174433935804
H         4.16572587911235    5.84568317805839    5.28026164736964
H         3.94982311958295    4.25684110591325    4.49015441417767
H         2.54225268014486    5.25378399599151    4.87216134121537
C         7.71049985482346    5.30497421010911   -5.49894060161123
H         7.50441680387235    5.88631012837786   -6.39740427352494
H         8.40578456636746    5.87280744459409   -4.88495870593677
H         6.77678326875053    5.18698375131227   -4.95313330405747
C         9.87276785135532    3.83926812472520   -3.14712119265455
H         9.48536977569585    4.86294218826778   -3.08289171184147
C         5.43388957105949    5.92087189105218   -1.00599683272473
H         6.31021299304637    6.50253441934836   -1.29841984562478
C        -2.25112662639407    3.00818047713599    1.77409991947687
H        -2.18905037664305    2.87796216155028    2.85161014671357
H        -2.33114987540834    2.02117027260808    1.32315694836767
H        -3.15430455628958    3.56317836427324    1.53124864309562
C         8.28569305779284    3.93795115173273   -5.87075532563153
H         9.19384819645061    4.11702229163366   -6.45478935694528
C         0.28747483319945    5.89577598406547    1.36088754452815
C        -0.44084060863012    7.68393893880241    2.87509058770075
H        -0.29904380188851    8.66775003590885    3.29235856599544
C         0.22488556435730    2.88019805001058    1.62241141582020
H         1.14345659589276    3.35741877073312    1.28909539321924
H         0.16565963308099    1.88628222584971    1.18583697423750
H         0.27137824705922    2.78214636059303    2.70509404448517
C        11.31447892873547    3.94984503224204   -3.64223021291942
H        11.89432277667681    4.59681586974945   -2.98486749970114
H        11.34997694302342    4.36260530388397   -4.64747149769405
H        11.79057160779790    2.97298258801728   -3.65377112413123
C        -1.82846491158061    9.90917102004647    5.48213089614682
H        -0.81025870630769   10.06092042786700    5.10768398290025
C         4.85179701893084    7.80635811982105    0.27151145762030
H         5.58131550495117    8.33032089913922   -0.35761206414083
H         5.23658636937942    7.70086706580006    1.29286730460309
C        -1.48126390021955    6.89473665264904    3.30724286483551
C         4.33986372952003    3.70399532496337   -1.07635865593580
C         1.91953135370584    1.93537464513076   -1.52782004114326
H         1.73592070743962    2.90327275190855   -1.07167514857085
H         1.12811934485546    1.25492261867573   -1.22195059859759
H         1.88203425770080    2.04468479600451   -2.61058432806896
C         9.89484486585934    0.26855528952607   -3.80076223500328
H        10.12518520131686   -0.73264853514173   -4.16341428481126
H         9.13905821024032    0.18749228987599   -3.02433433924959
H        10.80027845533801    0.68078896754284   -3.36230841166179
C         3.35454087711850    1.24444885308985    0.42886213507176
H         3.24283908192458    2.20977074809321    0.91490556869379
H         4.31477382482820    0.82230396306936    0.71878915605078
H         2.56539837252378    0.58423598963652    0.78150356115874
C         3.44480781392523   -0.01025772964294   -1.71284903217711
H         3.38738902450090    0.02767431385372   -2.79826263667713
H         2.64007344379959   -0.64991964485680   -1.35596338978785
H         4.38782029136215   -0.46492973296037   -1.41955566028936
C         9.85288092819613    3.26983495473821   -1.72782529419062
H        10.43142413712440    3.90316094360763   -1.05558522727045
H        10.28422388960748    2.27326491921111   -1.70676185022748
H         8.83633870895608    3.20723912670475   -1.34676291049717
C        -2.78428340454059   10.49135672433877    4.44050294593810
H        -2.56622645449597   11.54403610601658    4.26360307187084
H        -3.81383342351852   10.41195595005659    4.78091927228064
H        -2.69910496897855    9.95799159470572    3.49688733657147
C        -1.94620972451978   10.69183786301378    6.78851362999314
H        -1.72126931872728   11.74520615062647    6.62623405846061
H        -1.25654090243427   10.30616784907198    7.53517888043310
H        -2.95613550815365   10.62035853139030    7.18414715050351
C        -0.69568673916265    5.68602570372314    6.49913656007727
H         0.10570411061264    5.22287606056855    7.07384241764474
H        -0.55805324974331    5.42386250474953    5.45196177014767
H        -1.64078129514408    5.26671816098362    6.83474854953048
C        -0.67331643985379    7.20505550240546    6.67553401530958
H        -0.79068105283507    7.41362785226270    7.74346384563014
C        -3.72573385079260    7.65388084409139    8.07678383863609
H        -4.71406788818623    7.57841997510147    8.52864384821729
H        -3.23674652985524    8.53907740424984    8.47414554958819
H        -3.15055556279573    6.78242963569155    8.37912405342880
C         7.29108805708316    3.20937583888273   -6.77505435794043
H         7.03704300863081    3.82155058303026   -7.64007963713420
H         6.37547347308962    2.99471630977131   -6.22846084364565
H         7.70203450304459    2.26891878019743   -7.13156235196312
C         0.70015369315598    7.73795238880001    6.26127196408209
H         1.48113045357240    7.26591719886767    6.85599399776602
H         0.76709040491197    8.81201273053100    6.41288742877630
H         0.90141840900604    7.52185838925404    5.21448301386240
C        -4.54733890026422    6.47279339348762    6.03460130695949
H        -5.52947096226346    6.37365377144460    6.49536873266527
H        -3.97177233500374    5.57995000177345    6.26574882138373
H        -4.67326620798844    6.52754810706534    4.95765332187356
C        10.48122706773883    1.27319674383481   -6.01168548516539
H        10.77620577832696    0.28664789151433   -6.36724946900766
H        11.36474911973293    1.76409485950316   -5.61336370725261
H        10.12924307394485    1.84867509042751   -6.86315905627458

