76
CSD_code = COTPRH | q = 0 | S = 0 | Stoichiometry = C38H31O4P2Rh | MND = 4
Rh        1.83343857090375    2.02322317397006    4.01498055642057
P         0.87439144538130    1.83656199690778    6.07577064682463
P         2.55336582595665    2.40606271654605    1.89210891150074
C         1.97649477061932    0.21735497568799    3.87443967368189
O         2.04403295243871   -0.93144648241097    3.81215583502579
O         1.57808915086411    4.07068215158200    4.20087204922360
C         2.50823124076101    4.39708168185249    4.97091538750870
O         3.35264083971213    3.63257538592492    5.44444240536017
O         2.56600989223266    5.71641204832513    5.29120356350826
H         3.31268301522856    5.85040784276530    5.88948584980990
C        -0.89032356361647    1.38271994708630    6.07612132634799
C        -1.68411525103307    1.49495420549198    7.21390720220399
C        -3.01717503309689    1.13056042949663    7.16390953918469
C        -3.56653973653743    0.65902115575292    5.98170881069185
C        -2.78383890227128    0.55926956876837    4.84310280103415
C        -1.44969112464232    0.92238613894707    4.88992285414579
H        -1.25646464668764    1.87693692630621    8.13146828813665
H        -3.63168718989129    1.21628164822617    8.04846484567458
H        -4.60857140489797    0.37672561867859    5.94775995604864
H        -3.21539002434744    0.20190925142098    3.91957978595943
H        -0.82127868793052    0.86381180065269    4.00408719798846
C         1.67044408130751    0.56883324574436    7.11308162289147
C         0.99638644141511   -0.36089088564567    7.89287082130544
C         1.71267439327151   -1.29685080569061    8.62015018681880
C         3.09630017539557   -1.30947805787363    8.57346755434413
C         3.77270925191788   -0.38815446329536    7.78834122669545
C         3.06341193258940    0.54269736441316    7.05405182330279
H        -0.08361749797666   -0.36408145505455    7.92542784463611
H         1.18605604380205   -2.02211537952044    9.22359700854920
H         3.64808567553306   -2.04298526192890    9.14305221427142
H         4.85197288000667   -0.40348799853021    7.74512368636253
H         3.57255879545264    1.26650773878917    6.42652711875611
C         0.84016392886442    3.29666864764272    7.16168063535167
C         1.67145520749717    3.43989895345981    8.26541652889054
C         1.64778569595884    4.61515959954068    8.99611272339224
C         0.80736640630384    5.65160967720935    8.62524828697149
C        -0.01737517788013    5.51428110469963    7.51971642211759
C        -0.00101033132648    4.34265724575088    6.78840616333055
H         2.33947034635796    2.63815796616895    8.54621727489354
H         2.29484758636633    4.72438540845399    9.85482394891898
H         0.79997825728361    6.57034124095412    9.19359502015307
H        -0.66431014587152    6.32618508908538    7.22228049882554
H        -0.62706496868932    4.23253691706751    5.91237442627911
C         4.35772132750780    2.52848689837976    1.68369621246341
C         5.14179766567137    2.62322070262891    2.82836388458310
C         6.51802121571237    2.72126967048184    2.71813733841477
C         7.11439929866446    2.71967321990289    1.46813786218177
C         6.33579831121688    2.61613409080630    0.32528440328153
C         4.96066774558144    2.51837968279828    0.42828239104615
H         4.66145870159158    2.62457238462848    3.80176704853794
H         7.12573259791034    2.79689395743433    3.60777467852348
H         8.18855162254147    2.79517373616430    1.38109667967885
H         6.80389079371797    2.61012776775453   -0.64859924521830
H         4.35077218242971    2.42646646443673   -0.46068825747075
C         1.89812582838543    3.96524208622349    1.22012035233492
C         2.66058302140464    4.93577295135583    0.58618277786351
C         2.05582545176825    6.09795023242668    0.13661914201720
C         0.69849039378417    6.29653792100467    0.32106369331573
C        -0.06301392465429    5.33501395866114    0.96814401453269
C         0.53529208015544    4.17645104857462    1.42154061643319
H         3.72367324729476    4.79316911292804    0.45247082070125
H         2.65079380956651    6.85500042815429   -0.35381324574596
H         0.23474435022393    7.20778505889961   -0.02765297074407
H        -1.11910953758320    5.49826902433932    1.12687976195571
H        -0.03704194774909    3.42574686712327    1.95788797731722
C         2.15990628348357    1.20623409794296    0.57262206590777
C         2.81148856563177   -0.02392158752957    0.62494846772880
C         2.55272066540173   -0.99258299150591   -0.32440653124534
C         1.63429809970637   -0.74500667122397   -1.33336265206356
C         0.97891132342215    0.47290706917224   -1.38641596437415
C         1.23735918492757    1.44744053032382   -0.43709030977204
H         3.52712209062536   -0.20841317562194    1.41581439989299
H         3.06433800841439   -1.94267232362517   -0.27907792574040
H         1.43015568280025   -1.50202659695535   -2.07610857670028
H         0.26285484766477    0.66765917913354   -2.17175074255523
H         0.72467989605215    2.39777713135899   -0.48533869045155

