36
CSD_code = COTQOS | q = 0 | S = 0 | Stoichiometry = C15H15Cl2FeN3 | MND = 4
Fe        3.63286273932599    2.55804669592179    2.77899163062227
Cl        1.58125484477678    2.68093195865975    3.13741583362245
Cl        5.34747989708532    1.48375751875478    2.27926684259287
N         4.29320633681889    3.97062433396401    3.76769601786844
N         3.72955207640080    3.86234581995011    1.40199555481212
N         4.17896353781337    5.08032245639655    1.80195725890628
C         4.51987623400538    5.14445592852869    3.14515678924750
C         5.04457827916964    6.25892553697407    3.80441321255506
H         5.21678330971795    7.16969163635593    3.25969222774171
C         5.34802429357660    6.19929000875699    5.14465546610818
C         5.10848549815011    4.97644926854731    5.83346290884711
C         4.57876641998161    3.88293582181684    5.10196126796066
C         4.33217401957260    2.66242282689902    5.75181898709958
H         3.92363693833653    1.83816291570965    5.17003678119961
C         4.59843218831217    2.51660747788126    7.08898310283918
H         4.40521828928422    1.57677036378389    7.58253613973490
C         5.12074272233227    3.58980877574335    7.81689838204549
H         5.32775310469071    3.46778746944794    8.86941327959549
C         5.36987903619665    4.79080301452410    7.20428704702556
H         5.77136699519143    5.61107784452904    7.77793868855672
C         5.91436393737999    7.38798035432581    5.85276266232060
H         6.03647253307558    8.21989016086004    5.16439329207879
H         6.88606041979277    7.14937374985441    6.28318025985622
H         5.25513547763558    7.70162620722917    6.66126010201537
C         4.17352237107288    5.95041917394657    0.74902859170214
C         3.70828875685081    5.24102667314375   -0.33642291762122
H         3.57456226781445    5.61376371042300   -1.33116384671811
C         3.44109407270376    3.93835589061666    0.11112984311994
C         4.58447795047355    7.37632930398669    0.80148509412806
H         4.43050798413868    7.81867098595316   -0.17922192617018
H         5.63865257986945    7.47439624129869    1.05975133800789
H         3.98839909961897    7.93035481241201    1.52613919718896
C         2.92314157188441    2.76149591816456   -0.63186123283151
H         2.86558461550836    1.90871015796250    0.04676005497435
H         3.58256514757896    2.51255538901004   -1.46127923329683
H         1.93063445385994    2.96643359766883   -1.02881869773304

