43
CSD_code = COTROQ | q = 0 | S = 0 | Stoichiometry = C21H15CoO6 | MND = 6
O        -0.66892549781730    4.92406869050575    3.31806260266376
C        -1.01720251789030    4.61700732857710    2.12513650694657
C        -0.30948337152354    3.61541481020119    1.44079259276694
H         0.49744055650578    3.18722350466649    2.02222412490100
C        -0.49811441268340    3.12490799775096    0.16596410377290
H         0.19136255698445    2.34405929394253   -0.13292185375242
C        -1.43907764545441    3.48306926941408   -0.78988880739981
H        -1.38635708346488    2.94824588400427   -1.72936911749529
O        -0.67100576443410    7.63933913556375    3.37592059990058
C        -1.09909762334256    8.80947352143759    3.66941430264788
C        -0.39976634841121    9.93273643964374    3.19889372180018
H         0.47396429415470    9.67861068732024    2.61193099953133
C        -0.66860015960892   11.27251536642908    3.38337143449164
H         0.03351475481201   11.95132227392017    2.91359105394197
C        -1.70529677776741   11.87932733566185    4.07913869613665
H        -1.70524416097835   12.96167981114790    4.07914876190835
O        -2.61884779930062    6.23601824058841    2.46125701571610
C        -2.15778420673247    5.38489196954779    1.62361968912672
C        -2.75782101925467    5.27469174292098    0.35866613913968
H        -3.58962578672633    5.95364641196422    0.21820998500209
C        -2.43933434086257    4.44079018775042   -0.69226757038978
H        -3.06310343523755    4.55056537937670   -1.57170032958396
Co       -1.70549834619340    6.26548521874931    4.07906461605221
O        -2.74202915609104    4.92404843343111    4.84005641100824
O        -2.74003345003760    7.63935680126965    4.78214276681665
O        -0.79219559171651    6.23609437899055    5.69691953992638
C        -2.31191299200762    8.80949052609232    4.48865794707204
C        -2.74214332250408   11.27252841098503    4.77486821546480
C        -2.39374126296798    4.61697302528547    6.03297642095578
C        -1.25327528320410    5.38498516279179    6.53456305572925
C        -3.01120860838651    9.93276438479337    4.95915873001875
H        -3.44431881097098   11.95120824260996    5.24463631517843
C        -3.10131605588833    3.61521249472327    6.71722380675953
C        -0.65339721509866    5.27494334656531    7.79960474991851
H        -3.88504010493157    9.67868375775368    5.54598397812906
H        -3.90809882205509    3.18687613167655    6.13570245637239
C        -2.91269535968647    3.12470090951506    7.99205140206475
H         0.17826374544086    5.95405371890703    7.94015857606139
C        -0.97187502891864    4.44101667345245    8.85052139818814
H        -3.60202662320552    2.34368851206085    8.29084701855188
C        -1.97192829103682    3.48307249252492    8.94801909652104
H        -0.34827372942759    4.55096578089781    9.73005126083275
H        -2.02464990207898    2.94824631459055    9.88749758660586

