46
CSD_code = COTRIN | q = 0 | S = 0 | Stoichiometry = C17H23Cl2NOPdS | MND = 4
Pd        5.03239957081371    8.36843269123455    7.24767187807686
Cl        5.19867292156217    6.29049644191111    8.02005135938236
Cl        4.10109571734099    9.16210130983734    9.14178765555654
N         4.93123201587391   10.21110013453219    6.49494103853312
S         6.11955014809511    7.90182380602076    5.20112415470276
O         5.08892813926012   11.27581152777943    7.33608360801439
H         4.77653549758891   10.91503850251832    8.21778494162706
C         5.36830075991961    9.42417781370605    2.96812457754825
H         5.27522926154781    8.54635043333646    2.32983743195610
C         4.91643284702852    9.13070747729682    4.39150857419891
C         5.10650640084932   10.36660947884400    5.23799872778490
C         5.60038036527196   11.64888530551479    4.63070354265674
H         6.48250383252162   11.96301643202883    5.19919006748229
H         4.85555745209094   12.43764430814875    4.76433118320949
C         5.95857399767194   11.44469355598435    3.16395713896840
H         6.38822812897554   12.34501543212305    2.72673699188094
C         4.79453545171008   10.76166041537692    2.41054990370313
C         6.73682498325565   10.12529686590953    3.04964325205911
H         7.36145290755845    9.85939719355279    3.90077792638160
H         7.32219421897828   10.03701349151645    2.14042859413530
C         3.37800088368533   11.21916807699129    2.73011065873356
H         3.23101353269029   12.21547367271707    2.31624476290641
H         3.17446215397603   11.27289455106313    3.79412033380468
H         2.65382250834721   10.55459185768624    2.26355330746945
C         4.96521423958346   10.81948222841032    0.89347917705580
H         4.80312629942632   11.83523836545526    0.53944788930897
H         4.23474256238422   10.17038301798219    0.41497799679240
H         5.95413110986457   10.50402758314746    0.57791927028497
C         3.50959780621896    8.54068671419786    4.50064446323055
H         3.31013101308733    8.18169727001098    5.52900033919418
H         3.40291084509100    7.71574506537420    3.80047479311926
H         2.75823715445143    9.28578442303117    4.25843686994974
C         5.54426597816530    6.23171059616389    4.71642923437986
H         6.23720302212123    5.58645388775796    5.26254544150384
H         4.54342408151553    6.06079942868737    5.11374357011617
C         5.63734747372813    6.01538021458231    3.24134156873128
C         6.83484936700904    6.25230614968159    2.57389505146854
H         7.69502361964046    6.58549345465402    3.13581742377199
C         6.92181382079237    6.07554648831721    1.20595039464537
H         7.85586093646771    6.26397100757153    0.69831232812422
C         5.81332435060132    5.65627645995046    0.48768065369916
H         5.88023188261291    5.52006680440438   -0.58106339743019
C         4.62155939152276    5.40722134355481    1.14566460766995
H         3.75668890073395    5.07291269844748    0.59244066756985
C         4.53247915751265    5.58762095377979    2.51575008608160
H         3.60170329085683    5.37969506921555    3.02494995994033

