53
CSD_code = COTTAJ | q = 1 | S = 0 | Stoichiometry = C23H26ClN2Ru(1+) | MND = 9
C        -4.60813647792806    0.04402086122033    8.30021373032242
H        -5.63959535131977    0.22353680109754    8.02506020091144
C        -4.27591576756471   -0.98590799781035    9.15915233147679
H        -5.05124378432790   -1.60899727005030    9.57328420633639
C        -2.93577288428320   -1.21092021359917    9.46674773929676
H        -2.65398273419114   -2.01396996152840   10.12851507337196
C        -1.97834377702148   -0.39898086667093    8.89647716039274
H        -0.92722680282969   -0.54584375202078    9.08466059781094
C        -2.38332364485034    0.62612957223703    8.03616261714622
C        -1.52509644886303    1.53062785300721    7.33820330063423
H        -0.44677550524841    1.51574357006047    7.44023645615728
C        -1.43892806562153    3.30663117426072    5.79836554645441
C        -0.48968306268520    4.14271585385412    6.38753174787453
H        -0.29182416961890    4.06482741858320    7.44666540197025
C         0.16250611126470    5.08641472333295    5.61983784703333
H         0.88609062253303    5.73844461818587    6.08517554674501
C        -0.09188706528613    5.20780340053313    4.25582235489805
C        -1.02860506099470    4.35406821476056    3.67575816767275
H        -1.22284561955495    4.42175155504494    2.61602609069798
C        -1.70407903794066    3.41908237347326    4.43148532980430
H        -2.40347229562457    2.73032124545685    3.97510929057696
C         0.64299955804283    6.20835213448904    3.42804476772925
H         0.04164802023553    6.53675432973370    2.58424476944034
H         1.55251255410168    5.75587755829434    3.03189599651289
H         0.93240293034374    7.07215301024153    4.02080175516424
C        -6.89202939767438    1.92305023419088    4.18058239441816
H        -7.18189249154291    2.55872495577305    3.34596156568910
H        -7.77826760148006    1.45799266476183    4.60456471631514
H        -6.24596446144023    1.13457324408124    3.78704990079071
C        -6.14613712069503    2.71029761300166    5.20526263487795
C        -5.14676292071353    3.64366759144616    4.79946597753868
H        -4.97488593802602    3.79696725822569    3.74004988134553
C        -4.49755679759134    4.45450081322438    5.73208087673061
H        -3.82752144953670    5.23585425482765    5.38885833536365
C        -4.73744973804048    4.31125436080255    7.12304997628293
C        -5.68432530099099    3.34360152030652    7.52703761937602
H        -5.95915292460494    3.26819028767941    8.57358318625032
C        -6.41100750188724    2.58608717431741    6.57421085492232
H        -7.22451841588116    1.94999907194475    6.90584316019454
C        -4.07133603663176    5.23102355750891    8.11818051607642
H        -3.25525076838398    5.75214534998794    7.60421869221517
C        -3.47673557731028    4.45179395569366    9.29406066846103
H        -4.25539294582228    4.05182911759272    9.93869133656096
H        -2.85343840834732    5.10913347230840    9.89383338537967
H        -2.86186939031929    3.62387676438825    8.93406362690564
C        -5.08096646515855    6.27526009092469    8.60677131080712
H        -5.48100764120318    6.84356083777809    7.77050170157202
H        -4.59504811317064    6.96549814486232    9.29044432472736
H        -5.90803065686220    5.79993226484457    9.12865714954133
N        -3.69558815561597    0.84568626090788    7.75871414449978
N        -2.13879381386994    2.35516152399317    6.54020584483147
Cl       -3.78220276446009    0.47639644365307    4.89129389872843
Ru       -4.07518944350016    2.22960496478282    6.38788429315661

