83
CSD_code = COTWEN | q = 0 | S = 0 | Stoichiometry = C46H31CoN4O | MND = 5
Co       -0.07825816216685    3.21420309107837    0.00296974716763
N        -0.56224998521856    1.43562550023304    0.67272231128890
N        -1.90538588324546    3.83359599050984    0.37065772717797
N         0.41212773589997    5.02221216910167   -0.54912318580042
N         1.80614931729397    2.71136852588762    0.02977483877464
C         0.24173856397252    0.32902173396525    0.71861859702881
C        -0.52176243835305   -0.84616602907051    1.01240726189154
C        -1.79753190690291   -0.44025942738079    1.19661515579027
C        -1.81069444034062    0.97613454299381    0.98594929101868
C        -2.94196430210175    1.75828082114781    1.16854712578348
C        -2.94419460073349    3.11782825853357    0.90433415700048
C        -4.12085353808201    3.92784760876164    1.01426818220908
C        -3.80721299657835    5.13453685317267    0.49469505056402
C        -2.43667201908290    5.06046727432880    0.08705120872402
C        -1.79590302680062    6.08167047491294   -0.59476122398850
C        -0.44709734695662    6.02003492521905   -0.90583831633273
C         0.25198237312746    7.09817238094038   -1.53977553004028
C         1.55929812768082    6.75924215687634   -1.54409633214819
C         1.64885342179300    5.47216317543141   -0.91995065178311
C         2.84789108632008    4.80773595857650   -0.71367241758525
C         2.88775645773519    3.51126569623414   -0.21883022459000
C         4.10994968099703    2.80925756817637    0.03353154878537
C         3.76667669724941    1.54758040951330    0.37536260265301
C         2.33646933242405    1.49052211998839    0.34410486009454
C         1.62321803447969    0.32798838266697    0.59998470128514
C        -4.19355604454943    1.11484955447077    1.62332256370387
C        -4.88854178352868    0.25557360782343    0.77890268453020
C        -6.06031931466602   -0.34429232191258    1.20342863549883
C        -6.54745459830052   -0.09663308907845    2.47591490931543
C        -5.86006015923946    0.75755719999969    3.32177816447953
C        -4.69082422969230    1.36321171208193    2.89796791679144
C        -2.56868377309692    7.27444484886428   -1.00082604279591
C        -2.95629312418264    8.23124294468596   -0.07030047170382
C        -3.67664977119676    9.34147069646164   -0.47479505208557
C        -4.01823092585469    9.50055054202029   -1.80723365198543
C        -3.63632220104298    8.54643620619934   -2.73644702388933
C        -2.91154864198027    7.43760949599267   -2.33864063359145
C         4.11272394494136    5.48586534059872   -1.05918500145854
C         4.48404551698775    6.65814364378794   -0.40763388103144
C         5.66969548001241    7.29258026724276   -0.73055547941229
C         6.49418195607191    6.76945915366665   -1.71271607697303
C         6.12889610105512    5.60617416848067   -2.36950488240252
C         4.94754846361819    4.96535741904345   -2.04354261504807
C         2.36706417772695   -0.93393969716701    0.78532948534998
C         3.12327660301205   -1.46062159243408   -0.25744357351771
C         3.82424857979024   -2.64047991502249   -0.08693646484569
C         3.78557087653797   -3.30372745746479    1.12827475834862
C         3.04018422815014   -2.78266772311173    2.17272336661738
C         2.33233999780295   -1.60668453087211    2.00296847529591
C        -0.32012669780666    2.68240527726812   -1.90997090995743
C        -1.63072694904629    3.19348836881684   -2.29730009892759
O        -1.84615891293326    4.26352015438673   -2.82833393605897
H        -0.12184567982251   -1.83904326148933    1.07246931386491
H        -2.65502572264166   -1.02946433389290    1.45534857843252
H        -5.05883879935679    3.59288786624436    1.41148822251934
H        -4.43200250060945    5.99804057136880    0.37985281581639
H        -0.21215915659529    7.98933639338910   -1.91328534806616
H         2.39220122277660    7.30763854990818   -1.93821886451572
H         5.08961371602673    3.23905494339387   -0.03713853180801
H         4.40666199302818    0.73003169797453    0.64314618235206
H        -4.50846394862136    0.06799927337676   -0.21492758773619
H        -6.59501194493158   -1.00715995687055    0.53893494821270
H        -7.46114471404399   -0.56742224762312    2.80716625998085
H        -6.23628915712849    0.95332202289909    4.31528430212540
H        -4.15127275959543    2.02858874970887    3.55645447115283
H        -2.68527933286538    8.10547511339936    0.96849752123122
H        -3.97225101233913   10.08393789915417    0.25242785384970
H        -4.58235554399782   10.36701219263199   -2.12016350570403
H        -3.90466477623898    8.66753648659497   -3.77574022012582
H        -2.61282131210875    6.67902363038188   -3.04582313833203
H         3.84141413748098    7.06221524142092    0.36113210348393
H         5.95109702041903    8.19890646826831   -0.21456356046267
H         7.41819047737878    7.26753322852251   -1.96633482942484
H         6.76669946407929    5.19674606767132   -3.13920801517915
H         4.65722108049037    4.06185327344290   -2.55983431561154
H         3.14979531155400   -0.94206769011645   -1.20484857269316
H         4.40398440786032   -3.04326665677321   -0.90453745178946
H         4.33605403515330   -4.22316398061020    1.26160963599037
H         3.01080941753400   -3.29384586321633    3.12391202192318
H         1.75749742037610   -1.19425195836639    2.81955375635832
H        -0.26479227444293    1.59505748420646   -1.95649207692585
H         0.47996484798957    3.15436698925728   -2.48263734941834
H        -2.47819489781602    2.50729736911282   -2.08501626870465

