63
CSD_code = COTWOX | q = 0 | S = 0 | Stoichiometry = C35H24FeO3 | MND = 7
Fe        8.82494898219590    3.15966064186694    4.51030632459800
O        10.22198633385066    2.14549107081883    6.90170746196536
O         7.93075250951311    5.79147273434783    5.37291695900308
O         6.12276574166632    2.24411577316897    5.08504711138523
C         9.71280851139051    2.55185699040995    5.96125202548333
C         8.29426121066632    4.76523245466929    5.00806293803963
C         7.18076520038468    2.60223969584725    4.82435040607613
C        12.64179974104547    2.30398352861249    4.47120374259928
C        12.62887836574073    0.90087934844566    4.85660600629374
C        13.46321300368605    0.19792425767592    5.71167100164557
C        13.16936324418074   -1.13043180080703    5.97618180070511
C        12.07646281675966   -1.75035157947778    5.39123391582295
C        11.25614194377491   -1.05919582014468    4.50616383331907
C        11.52880919912190    0.26451249823894    4.25487572055619
C        10.89035553650396    1.22759589794028    3.29170016810515
C         9.39216261373822    1.45259000089025    3.34132163963469
C         8.92132242037736    2.50329663889176    2.47458835585848
C         9.72696111767443    3.67419505122268    2.47856034536009
C        10.88152035405419    3.73919359643106    3.29473158465503
C        11.57945482548739    2.52875834051121    3.64764277068124
C        11.29801553705100    0.78431830666212    1.86851959381134
C        13.58815213443725    3.28075404091207    5.00490477280040
C        13.71978768602124    3.45067062996448    6.38067970823421
C        14.59705374031808    4.39163959759790    6.88604753366966
C        15.36176674754909    5.16356731665380    6.02757325952875
C        15.25146302384306    4.98566765510261    4.65860576027135
C        14.37244286156305    4.04980670439573    4.14924827027824
C        11.55437164469937    5.04853530722286    3.47364983311427
C        11.64480287152390    5.63180559102937    4.73219338811409
C        12.29665205240499    6.83822013768283    4.89890659466758
C        12.86088359309715    7.47906460675008    3.80833036910451
C        12.75981377986430    6.91368673268504    2.54942193885356
C        12.10714373286055    5.70562985723274    2.38042863341727
C         7.76083842363971    2.36695866185384    1.57435472956722
C         6.89095432278401    3.43191675022519    1.34460296155125
C         5.82588870469506    3.29473336736903    0.47661783653464
C         5.61082740305295    2.09253141532630   -0.17889122919096
C         6.46840860433810    1.02886537915836    0.04106870943309
C         7.53629434861529    1.16371276203630    0.90957342209334
H        14.32011678287803    0.67660580097023    6.16233673287523
H        13.80106896321221   -1.69174913916851    6.64930346806508
H        11.86148457323175   -2.78342032918427    5.62157404783325
H        10.41376773434999   -1.55300006149149    4.04341196008799
H         8.80716433904043    0.53472814195261    3.35071957583429
H         9.43803975397768    4.54083228914883    1.89364834367252
H        10.83568420452435   -0.17121326022673    1.63001913669594
H        10.98114952250634    1.52247643755208    1.13427190561011
H        12.37848075856178    0.66800608408913    1.80995181003557
H        13.11046608128046    2.85855009455380    7.04830175205435
H        14.68304666108922    4.52541517735368    7.95480545142808
H        16.04475364076464    5.90005836835128    6.42469137415284
H        15.85188338834520    5.58001896014661    3.98542937001980
H        14.28974726919398    3.90514321228718    3.08176615613342
H        11.19328363566702    5.12782987643086    5.57711594328483
H        12.36427420771319    7.27988625735586    5.88171718794320
H        13.37360653747272    8.42031923776410    3.93913764570765
H        13.19170392482727    7.41342773509965    1.69449801167313
H        12.03683649190474    5.25923313543147    1.39808844418310
H         7.03745255973616    4.36084791709312    1.87847258286331
H         5.15492500693837    4.12552477375256    0.31480747530355
H         4.77550089885318    1.98557522649851   -0.85458275514601
H         6.30588741053076    0.08922002926452   -0.46635538516001
H         8.20928076923046    0.33357989555510    1.06610956720773

