26
CSD_code = COTWIS | q = 0 | S = 0 | Stoichiometry = C7H11Cl4N3Pt | MND = 6
Pt        1.86401112621561    1.88035782621648    3.28772759301972
Cl       -0.25438811753046    0.98869247466088    4.02615426967201
Cl        1.05476128265534    4.11116280549132    3.44423370491179
Cl        2.72051833763453   -0.32494733129513    3.28476918489589
Cl        3.81922231993428    3.70192983838707    1.55546187652099
N         1.30098821005779    1.71073989607680    1.38789306524215
N         3.78150474503134    2.56440588426291    2.84210967701882
N         2.48103763314896    2.05892411236414    5.24435549081691
H         2.02508370431489    2.89144362648673    5.63467900991228
H         2.20040813820629    1.24479540446191    5.79788250545609
C         2.13731263151378    1.19029349014968    0.48864703390778
H         3.11572087161130    0.89323527987411    0.84547382540940
C         1.77430125647623    1.03245671645434   -0.83664943947377
H         2.47705946758706    0.60535633953004   -1.53334812240445
C         0.50881019902117    1.42804076831484   -1.24223169240059
H         0.19836562600559    1.31577460845236   -2.26957235391191
C        -0.34900206397058    1.96921153336765   -0.29825507189069
H        -1.34247381089058    2.29188716651034   -0.56417483666475
C         0.08204037993850    2.09428412549888    1.01100268283613
H        -0.56651568490862    2.50331270289920    1.77561114411094
C         4.26687135499450    3.17805554432328    4.05996935114163
H         5.35177157801164    3.31602696121752    3.97161474362130
H         3.80518056422864    4.16027216108945    4.24887250760081
C         3.94242820490165    2.22323370481718    5.20884253230501
H         4.32859364516607    2.61027585937421    6.15732365480212
H         4.39048840064433    1.24897850101416    4.99430766354477

