78
CSD_code = COTXAM | q = 0 | S = 0 | Stoichiometry = C23H49BNOScSi2 | MND = 9
Sc       -0.23512036050047   -1.23485845620526   -5.01659659610079
Si        2.05433307415489   -1.90263580726909   -2.14606276392796
Si        0.35660354173882   -3.55653255638038   -7.73452741522209
B        -1.89153560827001    0.33457966568988   -6.20959400517032
N        -3.13075642008771   -0.03393584569429   -6.83307763701728
O        -1.84289953011857   -1.98343751321462   -3.28402627781408
C        -0.53757092848159    0.32086169291016   -6.94112416392280
H        -0.43888345379373    0.08457298611780   -7.99855155923635
C         0.59499784451411    0.88777883248129   -6.35732985072807
C         0.56381154793623    1.39650834406222   -5.04569106970389
H         1.43909429451750    1.90986698283960   -4.66309299899953
C        -0.61536516662857    1.39777120333507   -4.27614895822490
C        -1.79831735358903    0.84539365073161   -4.76508467827172
H        -2.67507407642938    1.01767455763820   -4.14046545058229
C         1.85286889333729    1.10181695982618   -7.16668607730499
H         1.90072646083016    2.14043136378081   -7.49837460430785
H         1.86792292774322    0.46528983453415   -8.04896632032724
H         2.74581585211678    0.90206426686463   -6.57552403705104
C        -0.62309166497114    2.19114421051931   -2.98892197579026
H        -1.29067626087492    1.75572829142890   -2.24587617112590
H        -0.97878830892420    3.20175711193397   -3.20016865356539
H         0.37500677083740    2.27453787707047   -2.56362605134296
C        -4.41320503598490    0.15744392976246   -6.19814973520312
H        -5.17948498503239    0.33361441403666   -6.96112650360656
H        -4.37548556276360    1.04674572711567   -5.56301146019855
C        -4.82002955056409   -1.04988555534174   -5.34507720362205
H        -4.05926988529811   -1.22142718011382   -4.58798116574176
H        -4.90081603728653   -1.94199956369017   -5.96322180420382
H        -5.77824694567672   -0.87473236270470   -4.86014535260941
C        -3.19667220351440   -0.58715728944841   -8.16735802359112
H        -4.06035369002486   -1.25932725978517   -8.24188990648712
H        -2.29864066061773   -1.18156868813524   -8.34857386374605
C        -3.31083574048483    0.49597020078333   -9.24525926816985
H        -2.45970588279213    1.16823503339087   -9.18014958342819
H        -4.21775333247259    1.08106836085458   -9.10805804781929
H        -3.33378719906040    0.04620399873231  -10.23514501196954
C        -0.70481457887001   -3.05883617106177   -6.25266606328459
H        -0.67823283111959   -3.90368150357689   -5.54588221593799
H        -1.75440795946976   -2.96936031999051   -6.57966230155989
C        -0.28055800292838   -2.87486733790365   -9.41112116584599
H        -0.20841290547873   -1.79331377774947   -9.45943397243426
H        -1.31674438481757   -3.14667680426556   -9.58733911357815
H         0.30344811272980   -3.27437643135629  -10.23486660143610
C         2.15455540950665   -2.92221340430260   -7.51366785785786
H         2.70585872121711   -3.54560089630445   -6.81639120997359
H         2.16213859801502   -1.90522301316583   -7.12327205897404
H         2.70144747198055   -2.92533308140386   -8.45175751677314
C         0.47384292776348   -5.46120959448561   -7.96314110176536
H        -0.49363150880124   -5.89499822952901   -8.19731756669285
H         0.83451691481900   -5.93832845103306   -7.05684586844944
H         1.15481311323103   -5.72829479601402   -8.76538480652225
C         1.72697682050014   -1.67699827327078   -3.98459887934154
H         2.07671985944851   -2.60530962771061   -4.46908847963762
H         2.42707513726630   -0.89538398666613   -4.33256158442229
C         1.54021595666572   -0.33271779725227   -1.16470501776882
H         0.70834157487124    0.17410335358224   -1.64607816840891
H         2.36220986020500    0.37434538079387   -1.11219390867257
H         1.24840854176101   -0.56437004848671   -0.14444177528159
C         3.88550245421120   -2.23743591276414   -1.67278767436650
H         4.53070213949620   -1.43113282617285   -2.00929775600917
H         4.24657778282206   -3.15374744081236   -2.13037637296682
H         4.01744236878025   -2.33412974384727   -0.59884123298784
C         1.06844622394434   -3.40197247979959   -1.46747878160614
H         1.46277675435211   -4.33027743108325   -1.86753161717120
H         0.02288120058962   -3.34715470227407   -1.74857859453090
H         1.12200210253147   -3.46409551617985   -0.38492211668813
C        -2.13073660476892   -1.30780595678956   -2.04593981422791
H        -2.79588740195275   -0.46237050531447   -2.26192153173472
H        -1.19131203824792   -0.93850217603260   -1.62893221909186
C        -2.82607628154354   -2.31828930160588   -1.13845736285709
H        -2.09111453534692   -2.89890159995192   -0.58077564976705
H        -3.50410552687821   -1.83929583342771   -0.43637743157373
C        -3.54077438832125   -3.20337309540356   -2.15511340119137
H        -4.46028163802472   -2.72626487004331   -2.49606502710849
H        -3.77633688688275   -4.19249054912912   -1.77105325835646
C        -2.51524618638190   -3.25427974235098   -3.28263145798592
H        -1.77570673598010   -4.04390616967946   -3.09980515250026
H        -2.96313501438165   -3.40949075464335   -4.26603206653669

