107
CSD_code = COVDOG | q = 0 | S = 0 | Stoichiometry = C55H47OP3Ru | MND = 6
Ru       10.14383086264724    2.87209664486409    3.09266389947190
H        10.14235317015263    1.48696313365780    2.43453721553705
H        11.71220040221788    2.93354529898795    2.97136991369950
P        10.77376857489541    1.65363353166756    4.94474814815352
P         9.92154195597897    4.92770728424791    4.12016740813705
P        10.29035002104826    3.55103075206236    0.89572199331005
O         7.17007130473054    2.52101276429797    3.06439402876936
C         8.31173653541106    2.69096472787059    3.11535963286888
C        11.73324280600858    0.12464759111799    4.59681750260738
C        12.25002877136039   -0.14750621266692    3.33689725710361
H        12.07082420100595    0.54550613231544    2.52602357875213
C        12.99245522766601   -1.29511982684219    3.11748470406629
H        13.38622001056868   -1.49425125236670    2.13100624169676
C        13.22955669335006   -2.18055564504912    4.15439033707893
H        13.80543101479524   -3.07838877432399    3.98265444985188
C        12.72814722662458   -1.90901493536998    5.41762032841324
H        12.91536294313439   -2.59304088136393    6.23303394563875
C        11.98791243517944   -0.76361722942268    5.64014448406720
H        11.60470997241868   -0.55801312097339    6.62993492682718
C         9.51974452135062    0.89214719830956    6.04380168698693
C         8.45264914053104    0.29726365241905    5.37533453415203
H         8.43199909649332    0.33446876367522    4.29142143335999
C         7.44069966428621   -0.32862114281118    6.07672798216094
H         6.61636181341641   -0.78331274537536    5.54681304112451
C         7.48484985395045   -0.36717755928204    7.46148869645461
H         6.69050967589129   -0.84512442303043    8.01625748710876
C         8.55438654335252    0.20082107750788    8.13207746270114
H         8.59930571270344    0.15898862168227    9.21125247687814
C         9.57393639248234    0.82214005817607    7.43077966728080
H        10.40910954966056    1.24391255319439    7.97101021982304
C        11.95904942995225    2.45152531031828    6.08666031449184
C        11.54774659932620    3.29243839895023    7.11680817462371
H        10.49723762256632    3.40530588506113    7.33553924012418
C        12.47855052786209    3.98715740871498    7.86823669557306
H        12.14174479788138    4.63627156395313    8.66401697147894
C        13.83045288501549    3.85656845524176    7.60086834280598
H        14.55467287413463    4.40234622157483    8.18787505142390
C        14.24911268072896    3.02633296368916    6.57388145045072
H        15.30280384957175    2.92221137287375    6.35694045438703
C        13.32180352747136    2.33404777435563    5.81749130013806
H        13.65064211711282    1.70369930224248    5.00190249358384
C         9.17269070263059    4.94368961597821    5.80288930216218
C         8.28733101739286    3.92232933968195    6.13990645339359
H         8.08501933544037    3.13140999617551    5.43026256349102
C         7.67882058849046    3.88681779893966    7.38126569081952
H         7.00102185991809    3.08012791612500    7.62105652787522
C         7.95195549606000    4.87480571063363    8.31220784268042
H         7.48657118852214    4.84708824767211    9.28653148459414
C         8.83018457570821    5.89522549422829    7.98789538210904
H         9.05047190785613    6.66776848647743    8.71083382976479
C         9.43475710281568    5.93484315622670    6.74360932130304
H        10.12646298253252    6.73244818593752    6.51869844700467
C        11.29866529643118    6.10506098940759    4.38962088398433
C        12.56855574292423    5.56838437396244    4.56440590198227
H        12.70020010052133    4.49702412552248    4.49626938857323
C        13.65491546644662    6.38714827902699    4.81212101730786
H        14.63470876777015    5.95246398244578    4.94849315707990
C        13.48364556357248    7.75894539623564    4.88089461790395
H        14.32991500514839    8.40464432499496    5.06628494198734
C        12.22091765099252    8.30407196155727    4.71138864312056
H        12.08230962807594    9.37449212911713    4.76912756008298
C        11.13148448515121    7.48613699622681    4.47427071393058
H        10.15002486104626    7.92474448306781    4.35510373013366
C         8.68964636891480    6.00557739076515    3.29493458366873
C         7.33320683154834    5.87894191441642    3.58425281909046
H         7.00686648603819    5.21292393417018    4.37124631862880
C         6.39442713918721    6.59892347278915    2.86683838722238
H         5.34541825070909    6.49142095219845    3.10290555120258
C         6.79436275887598    7.44672466137768    1.84743796544910
H         6.05926778042344    8.00243934292433    1.28390917290249
C         8.14159402749961    7.57979541741579    1.55494438506567
H         8.46459359414305    8.24036880352879    0.76320083808543
C         9.08302722073668    6.86598662248921    2.27244257109010
H        10.13259827455615    6.98204412487876    2.04501421973793
C         8.81805708959742    3.61331037948935   -0.18992388843251
C         7.65815330497778    4.17401495640648    0.33353987560924
H         7.65406660517260    4.52208256878939    1.35674753008585
C         6.52043977901593    4.29289333026675   -0.44238845071112
H         5.62737708248197    4.73068900649175   -0.02072629304512
C         6.52979185674063    3.84763140117579   -1.75371684870001
H         5.64065705323296    3.93125088743566   -2.36155592929139
C         7.68411902543831    3.29648142819410   -2.28624675527044
H         7.69641165233806    2.95513386254955   -3.31160811900271
C         8.82643565382387    3.18347448013613   -1.51420764716449
H         9.72601616930636    2.76402237138904   -1.94260135348787
C        11.07663755974496    5.14419846249335    0.45438768120990
C        10.60902789018441    5.97747945814066   -0.55577365284490
H         9.74811840166164    5.69262105154438   -1.14256824949936
C        11.23890058683230    7.18537605208614   -0.80239773872536
H        10.86672548162706    7.83058699528205   -1.58551415853032
C        12.33505848073042    7.57331250154196   -0.04995744611308
H        12.81428376255866    8.52255675966631   -0.24075011778876
C        12.81442526610378    6.74108742840767    0.94929820421419
H        13.66840481671200    7.03616100546593    1.54234825497215
C        12.18867123124013    5.53412514969213    1.19739686989657
H        12.54886954414390    4.88261545286380    1.98207127166412
C        11.35016272548272    2.38410528095891   -0.03354590341575
C        12.63547183221001    2.68879024803338   -0.46126743952934
H        13.03892278114706    3.68006497098696   -0.31061657366688
C        13.40951325363783    1.72008797884853   -1.07997059711979
H        14.41049844326787    1.96501157054330   -1.40573002885099
C        12.90911938253488    0.44584808854215   -1.27902059103568
H        13.51775216044798   -0.30691014214067   -1.75883468201552
C        11.62350769425699    0.13705456316809   -0.85981360777912
H        11.22717005667193   -0.85639118029673   -1.01365188897635
C        10.85088457489049    1.09841184370711   -0.23950653307322
H         9.84979773885577    0.86169346746899    0.10058541995158

