30
CSD_code = COVFEA | q = 0 | S = 0 | Stoichiometry = C7H14Cl2N4O2Zn | MND = 4
Zn        5.50573513933255    5.39319786541592   -1.10226308683021
Cl        5.28548190533474    3.51623818922313   -2.16245485831545
Cl        5.69101433109944    7.44137235735615   -1.96478220128040
O         7.41045274143705    6.08900739193903    1.00019811563648
O         6.42239758658852    5.55187317179393    5.52806941037346
N         5.18322176604766    5.58020493052021    0.91675127679803
H         4.31677783961629    5.51914588044234    1.42709859738105
N         7.50773718150747    5.50291962087554   -0.29298976631480
N         6.21806511285815    6.42593102843579    2.85591035263595
N         9.31000756230056    6.93661716775091   -0.63591789964535
H         9.07610255943950    7.48811984266347    0.17432254670677
H         9.89714293894860    7.36807465729459   -1.32918432458763
C         6.20279595279713    5.99743337540131    1.57655685953904
C         8.44924294183675    5.98233475870684   -1.02678094294003
C         8.62223535882678    5.39040940327110   -2.38161379306359
H         8.20931101238645    6.08315289225195   -3.11502914146060
H         8.07998512623863    4.45177295452456   -2.45747203200145
H         9.67658280220986    5.23269654363153   -2.59624182665072
C         5.05974756703583    6.42442841237808    3.72827078419439
H         4.13971441543333    6.26623886871796    3.16880861506878
H         5.00773234982051    7.40397654280398    4.21603902590436
C         5.23743260738870    5.33896639473061    4.79832552471936
H         4.42214592953204    5.37244603920791    5.52206249661912
H         5.26003340080270    4.34935823545572    4.31664077899346
C         7.55186577652534    5.54654011272657    4.68721332519268
H         7.65971296345372    4.56315446999313    4.20461787316952
H         8.41248360926654    5.73032683518578    5.33147228788144
C         7.44553348163265    6.63069308840279    3.60560228510424
H         7.39947251786645    7.61715212824755    4.07828365779200
H         8.30403552243371    6.58421684065070    2.94028605937933

