78
CSD_code = COVFIC | q = 0 | S = 0 | Stoichiometry = C40H33ClP2PdS | MND = 4
Pd        2.00735596176535    1.95383601605232    3.43653707483668
P        -0.16467194432863    1.52800274434169    3.09198611833612
P         4.18229623410062    2.45241481549183    3.71712536558425
Cl        1.47729695230985    4.20146530941483    3.60739914320018
C        -0.92314172027806    2.79010948147180    2.03641557435239
C        -0.18475477153045    3.09117232496639    0.89240027269921
H         0.74924509710213    2.55822830661507    0.71597289654132
C        -0.62474427230716    4.06444184030018    0.01882486278423
H        -0.05056899356244    4.30266107926386   -0.86464849284015
C        -1.79934065270519    4.75010234491208    0.29096497018758
H        -2.14130103629446    5.52065673346039   -0.38437379690640
C        -2.52334021556256    4.46484092677084    1.43564285635736
H        -3.42719036381076    5.01524910909658    1.65310000774169
C        -2.08933507841262    3.48623315251911    2.31466530333752
H        -2.64223124188136    3.28471026199609    3.22064601766503
C        -0.72190882523003   -0.04942750844552    2.38145620039985
C        -1.14653390167372   -0.17446479697005    1.06462503442802
H        -1.24064039211913    0.70432038131862    0.44158907274748
C        -1.44785765576311   -1.42468073025029    0.55331824328473
H        -1.77860137383832   -1.51865683223383   -0.47079481826803
C        -1.31775184483923   -2.55244596524125    1.34551933408061
H        -1.54390492628838   -3.52714724188890    0.93894956033414
C        -0.89289569758844   -2.43165112726082    2.65946165313689
H        -0.78632735132767   -3.31080873981314    3.27772465865324
C        -0.59509337185213   -1.18664458489693    3.17624341851528
H        -0.25220173852570   -1.08332926919900    4.19775409452636
C        -0.98590565925602    1.53927479829632    4.70736713459389
C        -0.18929501216949    1.80006419360881    5.81996237314232
H         0.88399677767845    1.98879422146071    5.67849184264962
C        -0.75161440492547    1.81360935783638    7.08377550942495
H        -0.13784207242526    2.01988039248685    7.94844372381639
C        -2.10506971889013    1.56012616701663    7.23951462248715
H        -2.54619512581781    1.57561615762331    8.22536092705573
C        -2.89471799026047    1.27468200870790    6.13625169469328
H        -3.94615324621500    1.06242431883210    6.26564247423616
C        -2.33898021935484    1.25671516642924    4.87007706528749
H        -2.94411838800085    1.01047534154513    4.00749650824504
C         5.39067272690606    1.11263325523777    3.49420517493049
C         5.98623426440760    0.83420081312865    2.27066922750053
H         5.81633149484551    1.48777128699021    1.42607031270956
C         6.79214133755357   -0.28265158117781    2.13502476435082
H         7.25300423885790   -0.49727676879363    1.18195670027079
C         6.99955673864583   -1.12834887980512    3.21096001188354
H         7.62211566384716   -2.00363193589945    3.09784072889763
C         6.40213948434452   -0.85706001381472    4.43202908803778
H         6.55800704224739   -1.52037383287054    5.27018549989945
C         5.59625913506689    0.25497755595783    4.57205241801979
H         5.11228622724729    0.47072763428620    5.51668080309814
C         4.48958277227746    3.56580901636432    2.31498976527658
C         5.31625371876883    4.67935530583594    2.34976345390994
H         5.85755449715086    4.92497187169248    3.25246602564979
C         5.42364132957553    5.48597672736496    1.22904573764366
H         6.06054147444370    6.35806946059251    1.25686798934650
C         4.71066102452041    5.18682786664494    0.08079923310629
H         4.79316459637269    5.82589471688309   -0.78613781366419
C         3.88048394572828    4.07635821931232    0.04423769089143
H         3.31944642500707    3.84952224833975   -0.85079952498501
C         3.76475726996186    3.26928767370937    1.15894712260913
H         3.10953881764269    2.38870421717430    1.14809492018947
C         4.78483096721761    3.29781345045246    5.20103961451042
C         3.85264717368042    3.78825183294705    6.10840956765772
H         2.79516742146881    3.67317590809000    5.89408343207303
C         4.28004961735076    4.43722735893631    7.25306480946052
H         3.55690143905482    4.82296386268487    7.95639335401791
C         5.63501145477055    4.59233109660128    7.49512566328436
H         5.96959517100976    5.09943678900960    8.38834712767903
C         6.56637279417094    4.09563516261665    6.59564200696701
H         7.62250831631790    4.21548475272363    6.78989023698272
C         6.14696917180203    3.44525592796578    5.45030252270041
H         6.86837414768203    3.04240026606681    4.75143525719483
C         2.43790604214504    0.03940134775014    3.25763782356415
C         2.61953288865879   -0.98470853315063    4.12993521880343
H         2.51257208265449   -0.87765464112555    5.20003120658302
C         2.96507916759192   -2.21094767574235    3.50286549241470
H         3.14632670324039   -3.12343424079400    4.04466165645756
C         3.04487525165759   -2.10897954950884    2.15658412791727
H         3.28507685746901   -2.85999150442467    1.43168965261166
S         2.69326729127556   -0.50085662367620    1.63072339763008

