57
CSD_code = COVQOT | q = 0 | S = 0 | Stoichiometry = C31H21IO3Ru | MND = 8
Ru        1.66346172271814    1.08035340885387   -2.89743988090342
C        -0.02951175835751    0.35129506967109   -3.12333529603856
O        -1.07432344894846   -0.07898969001594   -3.30150278032445
C         1.41272507056250    1.02659990088313   -1.05801767242848
O         1.28336059604878    1.05231263551758    0.07891342749358
C         3.10662979662628    1.68418904847262   -4.61298312088109
C         1.80535026452153    2.17385139474471   -4.88644702038074
C         1.44818689292235    3.07724210661112   -3.81233980258857
C         2.56147421739350    3.13248269247472   -2.89197200559683
C         3.55919806067517    2.22282541482383   -3.34881865095566
O         3.81386150210717    0.94333170454874   -5.48233200793964
H         4.55033344186624    0.49104033923886   -5.04249417814430
C         1.08370783507666    1.96908631252629   -6.15400456627578
C         0.89870713092215    0.68157465429903   -6.65154802458342
H         1.27075273419252   -0.16880787610992   -6.09405050843550
C         0.23061881203811    0.48639826631687   -7.84491442293822
H         0.08883861129852   -0.51582912942716   -8.22037765997965
C        -0.26064125994139    1.57157939048972   -8.55173580599006
H        -0.78819833089809    1.41800440338060   -9.48121891432751
C        -0.07310261933054    2.85435079522354   -8.06510052069663
H        -0.44953479285897    3.70389966742634   -8.61558621014582
C         0.59838493433880    3.05746836896122   -6.87383371289411
H         0.75288715845715    4.06064675505051   -6.50311720890667
C         0.32460111506885    4.02353629344256   -3.85858376431741
C        -0.97328874318861    3.58888224302715   -4.11886718783863
H        -1.16673489152248    2.53322864884469   -4.25278122485254
C        -2.01200241392219    4.49637260407123   -4.19640168284032
H        -3.01333566232092    4.14568155057196   -4.39570112444111
C        -1.77033433261453    5.84847394622182   -4.01655629883522
H        -2.58339958064819    6.55624014775458   -4.07423722174306
C        -0.48223380715551    6.28971165941584   -3.76498444735613
H        -0.28576878309689    7.34294746940071   -3.63034405480681
C         0.56159040462925    5.38676986506413   -3.68832314783761
H         1.56742311174703    5.73816554600143   -3.50805778836713
C         2.67836833279659    4.05826184307461   -1.75639361729163
C         3.87217421437002    4.74193162368114   -1.53419752764878
H         4.71320698033420    4.58233793172106   -2.19338758685424
C         3.97945167175637    5.63143315831165   -0.48115838230671
H         4.91101770141820    6.15236550115895   -0.31778761986038
C         2.90096490456054    5.85386659137806    0.35770050205991
H         2.98921773483230    6.54608106293718    1.18125824367816
C         1.70763041222467    5.18493795116898    0.13733894038504
H         0.86271503070336    5.35376168674952    0.78769508872984
C         1.59379680609366    4.29399741665056   -0.91155172076834
H         0.66310501614690    3.76487101565289   -1.07446309308435
C         4.90910515056690    2.02534345133175   -2.79321926202119
C         5.08320418592207    1.71953558615015   -1.44440663752304
H         4.21540255591639    1.61920629728184   -0.80315313358052
C         6.35062622189508    1.52566078446228   -0.93300178521587
H         6.47360070671908    1.28297556346050    0.11136475523977
C         7.45840534858146    1.62956262232490   -1.75929789920861
H         8.44802584795151    1.47071881621489   -1.35894375080574
C         7.29410253890481    1.93288340984346   -3.09954444819960
H         8.15390363265774    2.01663449710783   -3.74737119183935
C         6.02716133336113    2.13003382902268   -3.61904720113107
H         5.90709462760682    2.39032346862974   -4.66228530704237
I         2.89653605627392   -1.31693971608843   -2.97765287861257

