85
CSD_code = COVSOV | q = 0 | S = 0 | Stoichiometry = C52H26Cl2P2RuS2 | MND = 6
Ru        2.75917255234163   10.90615620212594   14.06242741720560
Cl        5.15179146533065   11.14001392462941   14.56215863912802
Cl        3.31614814356973    8.60106320536463   13.20654562500967
S         0.38564468352854   10.60754308695914   13.92851939147094
S         2.86162913337353   12.16739466970311   11.96388961025574
P         2.54259103483022    9.88380656026246   16.19816836058279
P         2.50490809973428   13.05595106593293   15.08571697010940
C         1.02376140804820    8.88365403387122   16.01229570451826
C         0.73365142253165    7.74129137254313   16.74772552854379
C        -0.29681166633324    6.89909465985963   16.34545394684487
C        -1.01147000493282    7.13466580360662   15.18429141396490
C        -0.74624324957246    8.27921754935039   14.43511623407933
C        -1.26634569512628    8.70705478598933   13.15659506758816
C        -2.20471367541326    8.08714296485068   12.33838523537502
C        -2.52356177895236    8.65059355103394   11.11789013782509
C        -1.92312281709610    9.83253221258264   10.69733231241358
C        -0.99781444021725   10.47608768970244   11.49898035615720
C        -0.67234161376005    9.90244224810038   12.71398952464997
C         0.23325392720953    9.16043684570137   14.90532884722857
C         3.04549545719929    9.78552505035722   17.93305225874226
C         2.62112712093867   10.48784913671076   19.01161503461434
C         3.20930331334129   10.17391926090297   20.12981103318755
C         4.20672316704301    9.34034514677678   20.53280587913561
C         4.57729724023169    8.58713297856844   19.42225322222312
C         4.08626212299345    8.75914855510009   18.17384016693456
C         4.81367239501546    9.24021205084957   21.89071411125236
C         3.71072413952078    8.56104163488899   15.84089841967401
C         4.42864242257785    8.08014926892016   16.94781164299808
C         5.31827964882707    7.10282718164321   16.60832034251399
C         5.82304674897916    6.38663918591557   15.59030018597435
C         5.02869063073614    7.00478041368942   14.66434790893100
C         4.07637347462145    7.97806322668856   14.63180438734106
C         6.83179078717039    5.31580672293049   15.47617734429013
C         3.36086088334370   14.12940935301913   13.88213973366771
C         3.94770769933607   15.34440655494651   14.21478791477525
C         4.74804701792272   16.01209319231934   13.29626065308733
C         5.01598113057958   15.47414332237992   12.05081685514279
C         4.43203833685376   14.26301425852202   11.68633368147691
C         4.60520604236222   13.47360169567501   10.49002513822919
C         5.39555104507803   13.73205875708126    9.37485520984085
C         5.44145637344426   12.81474513085364    8.34353492076272
C         4.70483542405985   11.63638852997703    8.40210330918702
C         3.90444457416112   11.36015075886663    9.49515834171495
C         3.87031346787830   12.27663833658351   10.52985977891073
C         3.57970561591837   13.63478356410538   12.60198470908130
C         1.80338646344087   14.16716895605308   16.34119864778611
C         0.70561317180030   14.96170564371555   16.26771221306241
C         0.50562523865857   15.67025727907581   17.34469722430843
C         1.05868272783206   15.81092666938635   18.58012387439911
C         2.20715212865965   15.03037772553800   18.58310264933720
C         2.60709640823840   14.21723744350461   17.58346297487043
C         0.55398452829796   16.62207548949360   19.72274276510984
C         3.87570538759692   12.76615083025110   16.21439241396966
C         4.97592403679722   11.92091044170019   16.09515342464723
C         5.77021336848032   11.76769979217098   17.18663944546039
C         5.83273247464519   12.17697937811066   18.49253976981740
C         4.75618880557413   12.95587600577796   18.32405355201942
C         3.76346544488032   13.36261558194106   17.47743241539605
C         6.73299221581650   11.82269535587990   19.60226729358461
H         1.32695041524498    7.50618881110060   17.61978494685075
H        -0.51133850039210    6.01765179376836   16.93099009483180
H        -1.76262539562725    6.43424717934651   14.85307567460971
H        -2.67704494772180    7.17186266629673   12.66111321468849
H        -3.24886801608327    8.16775748930728   10.48047770267132
H        -2.18347098262039   10.25440197238183    9.73854209784212
H        -0.52982998296336   11.39830992937287   11.18930117639435
H         4.17526569695863    8.63839187900145   22.53902336958572
H         4.91321212653235   10.22776972938992   22.33823828782789
H         5.78974314249384    8.76381722215592   21.83435628897421
H         7.13283771958748    5.19551925095156   14.43928625606768
H         6.41330338773192    4.37557054836223   15.83415491469829
H         7.69900593200360    5.55596461947978   16.08725726758731
H         3.78238714536932   15.75539683955436   15.20035342537797
H         5.19375346724641   16.95503946417334   13.57543228336712
H         5.67664690221581   15.98143343607344   11.36471795383089
H         5.96647008943779   14.64652507777559    9.32273225475004
H         6.05702358731288   13.01325151512857    7.47922117202758
H         4.75569661495989   10.93062142789980    7.58705176361385
H         3.32491949800690   10.45063338629650    9.54901550184104
H         0.84268572360387   16.16061887075057   20.66420399570919
H        -0.52939438256265   16.71270300446518   19.67810540789310
H         0.98481076808217   17.62397313826118   19.68652921122110
H         6.62960279981350   10.76003074031204   19.81768092153130
H         6.47547571615609   12.39764404173858   20.48687343583940
H         7.76741586509036   12.01718367407511   19.32454021004856

