40
CSD_code = COVSAH | q = 0 | S = 0 | Stoichiometry = C19H16FeO4 | MND = 7
Fe        5.82219505207988    0.65540632890842    3.21763893883284
C         7.39664333995939    0.72394070716675    4.00884521443747
O         8.41187623991168    0.69766564075807    4.53936612619700
C         4.95986620764330   -0.50759244595606    4.25418784187673
O         4.39270154668196   -1.25132746649186    4.91142515014961
C         6.55664434554239   -0.41720310727802    2.02244326037278
O         7.04444975798040   -1.16677948332934    1.30627957869010
C         2.68359451204490    1.10693004310075    2.63022931596401
C         4.07123640546016    0.96810578496132    2.05591761114220
C         4.92779943134154    2.12047647313883    1.89071641137588
C         5.38711310728232    2.79468433775039    3.02022347605832
C         5.04390005172690    2.31159772868948    4.33021276829248
C         3.63017443249662    2.27138700583656    4.87614878337104
C         2.51826136925437    2.00459407628896    3.87654072462678
C         2.09856988613061    3.12717198005092    2.95381512769438
O         2.06431069823060    4.31803725315903    3.07425173463299
C         1.83510868567898    2.15545012308165    1.81149825577726
C         0.34782251093194    1.79382700297172    1.75488116569223
C         2.31889954881457    2.51875854039329    0.43181223627784
C         2.71689419390621    3.81030690448682    0.11513590425313
C         3.15992102930021    4.11371173715193   -1.16142055084406
C         3.21250603698548    3.13195597615088   -2.13476146578231
C         2.81097483229224    1.84240064919775   -1.82835193638327
C         2.36411930585263    1.53916773278567   -0.55590175741072
H         2.21953239532257    0.12277075201228    2.71603456480738
H         4.00104150927111    0.37903260462455    1.13837760455331
H         5.29191663896847    2.40328569203743    0.90748421419828
H         6.12264462584676    3.58564007151930    2.90495138341942
H         5.68970322527333    2.72984900643110    5.10623548744441
H         3.41949095250993    3.25385569307454    5.31915812728958
H         3.58849533243985    1.54049495988123    5.68695039397338
H         1.63163454884149    1.68981802696234    4.43583421383024
H         0.18880203490981    0.95803537781902    1.07723718381103
H        -0.22084271285671    2.64690562342060    1.38956645695181
H        -0.03002019243319    1.52160839956529    2.73786721015749
H         2.67879279794774    4.58432439648071    0.86530743166347
H         3.46623092878487    5.12306324395485   -1.39418759138237
H         3.56131723446577    3.36923378536671   -3.12894024564412
H         2.84445627646210    1.07072936951193   -2.58373141120010
H         2.04932187671699    0.53047947436417   -0.32847893916778

