91
CSD_code = COWJOP | q = 0 | S = 0 | Stoichiometry = C50H26CdF2N8O4 | MND = 6
C         9.91521175381132   -2.11113142148424   13.88181307250726
H         9.47388262670839   -2.71829308061777   13.10118810711861
C         9.81159773583326   -2.45936280572356   15.22721321405455
H         9.28114182444910   -3.35313463465042   15.51493004851703
C        10.38728218468749   -1.63607448189930   16.17121298487333
H        10.34167510644269   -1.84945313696689   17.22824475980540
C        11.04438404910831   -0.47696565420474   15.74877784199013
C        11.08362946524458   -0.19990641399262   14.37137308367314
C        11.70041293474190    1.02543500318525   13.88707923980854
C        12.24404070953179    1.94557458940695   14.80095366852962
C        12.75751123074295    3.14619690711067   14.30705104939719
H        13.15411084786577    3.86797074161339   15.00420125998055
C        12.73631421556692    3.36863338017002   12.94665334926831
H        13.11099047827383    4.28852197931925   12.52573046512610
C        12.21988947955550    2.37679510207813   12.11772406599304
H        12.20620981410627    2.50322056476994   11.04216737581656
C        11.67360845931417    0.42623503476499   16.68762769579245
C        12.26861426098069    1.63754361249568   16.21383717386102
C        12.32594242158910    0.93785801289997   18.81067002875692
C        12.40705026642375    0.61381109293888   20.18323149242126
H        11.95076413201425   -0.30351785108997   20.51934934562533
C        13.05407561048209    1.45045957369585   21.04489480736088
H        13.13704025087319    1.22926654580904   22.09746204384681
C        13.63422051830726    2.63606081541537   20.55699348593318
C        13.58234104315503    3.00079736085732   19.24336954957819
H        14.03265185477701    3.91297230462993   18.88784335396248
C        12.92097130699833    2.14734480833545   18.33661527181302
C         8.56038291721550   -1.18234110661472    9.82036145905608
C         7.47497213225861   -0.13593631892642    9.69856606504910
C         7.27346704067856    0.45558817861018    8.45610217780583
H         7.81813811738458    0.05293833884970    7.61292446611261
C         6.40513114252218    1.51882067734461    8.30533360581505
H         6.25419145124940    1.96628630482176    7.33305323370652
C         5.73324183175049    2.01008568694583    9.41330096828421
H         5.06105745673153    2.85048193610738    9.31202007063158
C         5.90567402661981    1.41372888791793   10.64849899521207
H         5.36308780695954    1.78244945116542   11.50795611591257
C         6.77257000661037    0.33567221415237   10.81258805819961
N        11.72562469255571    1.24021806733006   12.56845856301216
N        10.54378617532086   -1.02563325530754   13.46987423233756
N        11.71121111844509    0.09984598549987   17.96415812310195
N        12.87647486397838    2.46902676095692   17.03589892138114
O         8.88086542729266   -1.54286621993837   11.00023161888383
O         9.12681342043540   -1.57828852331165    8.79552826022535
F        14.26736586058670    3.42955442403568   21.44016658989548
Cd       10.14714068771759    0.00808109940652   11.48207140878714
C         8.54628620197813    1.18503014419842   13.13458968259031
C         7.46440844611664    0.13411543805710   13.24963966089151
C         7.25902518097603   -0.45990759715136   14.49028773961656
H         7.79773460890121   -0.05610533209791   15.33673722938921
C         6.39427834408141   -1.52687991853790   14.63526608670575
H         6.24006708263723   -1.97612680469145   15.60621141459534
C         5.73022811531261   -2.01962430524281   13.52324135673675
H         5.06105489212122   -2.86295823617064   13.61996725811635
C         5.90692372008948   -1.42127247300609   12.28961674112226
H         5.37077372771630   -1.79152247082981   11.42677085320724
C         6.77009037459214   -0.33933943012054   12.13138363497347
O         8.86881348761476    1.55063275093647   11.95674512169821
O         9.10816287388796    1.57962444443962   14.16239540934056
C         9.91858218354949    2.12423957152020    9.07858117340197
H         9.47661044750595    2.73366474151432    9.85709353578538
C         9.81411147870730    2.46749856586206    7.73204554776409
H         9.28333609146163    3.36010612392751    7.44131798745516
C        10.38883970222182    1.64046517399699    6.79065452009200
H        10.34157979320038    1.84941529754948    5.73281263671259
C        11.04686435623122    0.48333990988882    7.21692824143932
C        11.08868827408357    0.21237640453147    8.59547557569616
C        11.70885352091322   -1.00947150151922    9.08428682978025
C        12.25310828458728   -1.93262938158713    8.17385228452177
C        12.77182721225027   -3.12886247665336    8.67271141154630
H        13.16891055367700   -3.85303808694715    7.97834383512639
C        12.75489494103666   -3.34422908119881   10.03435844614659
H        13.13409837257618   -4.26046940887568   10.45916768218408
C        12.23633505478452   -2.35028243502402   10.85927372540527
H        12.22510279205352   -2.47150193799491   11.93547300744163
C        11.67264657210876   -0.42503809633439    6.28075795878774
C        12.27089404701930   -1.63295564046813    6.75911801514187
C        12.31231566260860   -0.95085122148514    4.15732969437177
C        12.38388049602142   -0.63678366664068    2.78192955214335
H        11.92505357062016    0.27797297937942    2.44227963116489
C        13.02474202598851   -1.47979425342829    1.92184852129773
H        13.10002596502074   -1.26645017542745    0.86708709115341
C        13.60842256860070   -2.66175729550458    2.41430944523046
C        13.56596360884001   -3.01678137736360    3.73092318167886
H        14.01866782531400   -3.92639625069721    4.08994873720847
C        12.91073296945445   -2.15682760950519    4.63598273421713
N        11.73701902917532   -1.21766837436867   10.40391960945836
N        10.54847990861665    1.04084519388328    9.49429672190680
N        11.70282973717533   -0.10706749018242    5.00192132582521
N        12.87462237091840   -2.46946732232420    5.93914596029683
F        14.23515276986013   -3.46183762610539    1.53247242177978

