62
CSD_code = COWKOO | q = 0 | S = 0 | Stoichiometry = C28H30OP2Pt | MND = 4
Pt        0.78020301039599    2.87732822461410    3.64834945919769
P         2.33508478389016    2.58628814870474    1.89393516548254
P        -0.76254914365885    2.48281850598736    2.03261410345030
O         2.20229048328783    3.49193633689300    4.96191780711424
C         1.37866659577131    2.41134565631935    0.29869082841744
C         0.05934617952512    1.69741840803920    0.56346338939575
C        -0.53958967233707    2.92073255953106    5.22093737306012
C         3.20961723447336    2.58836856132929    5.16686733562797
C        -2.36125393073187    1.62647510026078    2.13446880089377
C        -3.47910590143597    2.34155435491341    2.55899359996540
C        -4.69000409273222    1.70069274957795    2.73865012622345
C        -4.79519506819367    0.33787487016199    2.51032879729945
C        -3.68166107348963   -0.38373596619452    2.11298579883928
C        -2.46721716441184    0.25334219237789    1.93435763916445
C         2.97977380711455    0.88967786628274    2.04729874523685
C         2.20698307956674    0.02240430486002    2.81843179946204
C         2.59292623637355   -1.29301092412228    2.98867264314573
C         3.76178833037270   -1.75015945567847    2.39991786064942
C         4.54570449343791   -0.88578577192735    1.65346879031070
C         4.15993130024163    0.43124869378612    1.47469605433612
C         3.74437120676989    3.61365223027828    1.37381117311577
C         4.37088727798428    3.54346825389327    0.13295777242038
C         5.43580314137629    4.38006796635063   -0.14874964982632
C         5.87681343494163    5.29370254410091    0.79546016371590
C         5.24288320888200    5.38212687749844    2.02366178506710
C         4.17738192033955    4.54840775974337    2.31126195366716
C        -1.20438172311982    4.10312846253222    1.33612032119115
C        -2.08352819011786    4.25001966749957    0.26796760049849
C        -2.33851284671345    5.50915970732290   -0.24341756451954
C        -1.71839081043353    6.62183493442031    0.30436126343989
C        -0.84523854191433    6.47930946664959    1.37084771140346
C        -0.58869526950971    5.22219178555638    1.88791264038881
H         1.96644398390076    1.86613850225926   -0.44538008132519
H         1.19267547363724    3.42425338829779   -0.07497627145124
H         0.25494607739240    0.64750850678407    0.80277822781251
H        -0.60208562419192    1.73939988246543   -0.30790053090950
H        -0.19714348497668    3.63761029299619    5.96940507615250
H        -0.55921016164503    1.92880287667164    5.68809661260743
H        -1.56670925694581    3.17371391041959    4.94028692112879
H         3.93843320349752    3.03426774333250    5.86304295906572
H         3.76795533418161    2.32934088505939    4.23288681516836
H         2.86987063492300    1.63627241904128    5.61266516940758
H        -3.38960286818982    3.40384795943661    2.74192607759841
H        -5.55388974554867    2.26310879356555    3.06121390799163
H        -5.74173218314106   -0.16270509469055    2.65021597330602
H        -3.75915693641878   -1.44843375932635    1.94663604111193
H        -1.59952842529677   -0.31973618718437    1.63994615079699
H         1.31062570130180    0.40667656362616    3.30895321376721
H         1.99062439284316   -1.96074789669774    3.58733610492559
H         4.06926926298024   -2.77671195003340    2.53471633372620
H         5.46583578058503   -1.23867239097310    1.21032090292654
H         4.78459552631735    1.10491346636754    0.90560711834376
H         4.03044516865809    2.84312917888221   -0.61666313091333
H         5.92470524369775    4.31954565960752   -1.11080651530696
H         6.71103662108258    5.94114881625526    0.56772270030403
H         5.57714182566779    6.10271540007936    2.75533389289235
H         3.66244831444521    4.61721952783605    3.26105646186323
H        -2.57365566190436    3.38080997000767   -0.15039602022737
H        -3.02319196979342    5.62541585590551   -1.07112574072494
H        -1.92139175406789    7.60253094423563   -0.10029225198115
H        -0.36768656216592    7.34776203488809    1.79942171091152
H         0.08429979322990    5.08619062932053    2.73713088318112

