59
CSD_code = COWQUA | q = 0 | S = 0 | Stoichiometry = C20H32N2O4Ru | MND = 6
Ru       10.04449955163116   11.59112665411389    7.76290727885280
O        10.01509694456231    9.89794467398957    8.95699834705242
O        12.11494809671022   11.36619996788638    7.44260889693439
C        10.81693247420179    8.13295830013069   10.30456918137783
C        11.03603141454656    9.26941490990219    9.31865090430382
C        12.35659512914364    9.49287103642526    8.90848995888651
C        12.79751250838338   10.49206323959329    8.03848534007352
C        14.29226642831848   10.53294385758048    7.76072716382433
O         8.01336546303965   11.75775958885959    8.29361517227652
O        10.61504924183944   12.49165168016701    9.54016526555018
C         6.14501348677630   12.12779957616271    9.67492978094235
C         7.64472668301851   12.16858108450939    9.42507487835020
C         8.43300327345551   12.66108576117961   10.46717832070689
C         9.82882765605251   12.77763095335225   10.47200816947312
C        10.45777747478678   13.31985056357681   11.74550083591287
C         9.66912881745614   10.55080044585668    6.23077401840266
N         9.53021434402198    9.76137974605956    5.38192423634566
C         9.34464528978961    8.83524927398230    4.33518050611222
C        10.64053030033567    8.03246664223913    4.18106164599276
C         8.17761738813559    7.91747806278225    4.71193588515750
C         9.03220468439767    9.61341920383444    3.05320511606530
C         9.99415249299874   13.27572088394952    6.90820634854235
N         9.93107921739786   14.39175198225268    6.57110525519605
C         9.89882161933352   15.73276362516684    6.13682665340991
C         9.92859389821515   16.62853197299530    7.37942919661544
C        11.12728908722986   15.98376897178507    5.25680542164120
C         8.60683427476982   15.94860862358343    5.34269463897265
H        11.19123718903110    7.19901298437130    9.89076011055691
H        11.35187838830269    8.33569289492306   11.23024130075625
H         9.75510757414640    8.03500382413694   10.51776001935851
H        13.11120275470164    8.84108876239555    9.32507901405159
H        14.62823467217611    9.57665050559130    7.36646473538226
H        14.50281297771086   11.31833339005954    7.03957771602905
H        14.83527733231532   10.73511233714307    8.68129493512363
H         5.77990588857120   13.11663800053198    9.94288430262568
H         5.63991359957799   11.78365149910227    8.77615086543777
H         5.92458053213431   11.44647303619146   10.49384951347918
H         7.91779819171950   12.96120892881558   11.36845984306576
H        10.22757850920874   12.66464633863052   12.58324191749508
H        11.53655216228630   13.38034755993893   11.62211517916306
H        10.06287330276464   14.30940315145669   11.96617783544561
H        11.46895066228209    8.69809204041021    3.95056933600965
H        10.86919738813949    7.50810596485164    5.10586210201401
H        10.53644772614399    7.30556193469476    3.37947246662118
H         8.39462364181843    7.39676441135125    5.64139472471099
H         7.27074224831630    8.50109174766686    4.84997154555450
H         8.01119372487565    7.18436536451467    3.92663349345976
H         8.12900314878625   10.20450985398283    3.18334528673179
H         9.85210665754971   10.28575427983594    2.81248571685861
H         8.88667782776612    8.92313082713724    2.22615780905157
H         9.06695277709404   16.42363534726302    8.01057050479378
H        10.83004123649299   16.43783437434942    7.95678164361368
H         9.91110058971929   17.67520349461920    7.08618780601235
H        12.03715318585025   15.78759056032177    5.81852247744564
H        11.11029499544709   15.32634484219092    4.39095862009309
H        11.13670232230917   17.01633386161057    4.91693480579584
H         8.58336997836586   15.29175739831541    4.47655691254596
H         7.74240604251773   15.72793255946097    5.96419323768017
H         8.54572553133364   16.98030664221862    5.00568580607416

