103
CSD_code = COWQEL | q = 0 | S = 0 | Stoichiometry = C40H56Cl3N3Pd | MND = 4
Pd        6.45744335377761    1.66619699571191   11.81938798305662
Cl        4.59053034558762    1.15542554320761   13.03441993979990
Cl        8.40449068795171    2.22233636103312   10.75397995319887
Cl        7.90191780670759    0.57478422549268   17.13721572224520
N         4.92039231357122    0.00468536479747    9.86894288165768
N         5.54510325762193    1.85977507774725    8.98237596801679
N         7.36780974142881    2.20483575671080   13.58714905401379
C         5.59114758083072    1.14596806311507   10.12555674024546
C         4.46623966348540    0.00208192082097    8.57602987364345
H         3.94066951771062   -0.83311208681889    8.16177330008222
C         4.84585949682202    1.17462513059115    8.02341465520185
H         4.66201359713067    1.58699397676475    7.05309266792275
C         6.06945449083203    3.16412600480608    8.74338041139493
C         5.36080230196973    4.26571003506005    9.23163355751505
C         5.80675535046102    5.53507914996297    8.88590289026750
H         5.26762248028191    6.40392006389891    9.22918733886163
C         6.93331467643125    5.69884453008227    8.10461442564545
H         7.26954973898249    6.69238389277691    7.84642766529081
C         7.63619498894780    4.59731877804167    7.65656148491051
H         8.52317525819804    4.74358596330677    7.06279933742145
C         7.21815748919648    3.30692324698995    7.95746707679642
C         8.01130085217603    2.11276013807088    7.47973520653983
H         7.80378971778899    1.28638684453162    8.16739617136863
C         7.59992515315772    1.65477194903355    6.06582127111989
H         8.33716697029450    0.92689517809595    5.72119279025370
H         6.64069364877450    1.13555745916468    6.11809165673636
C         7.49485926873614    2.77475792867857    5.03773218372721
H         7.22332239712489    2.36170533797445    4.06812172782437
H         8.44241186280317    3.29512816420737    4.92700960050283
H         6.73770166118353    3.50050868599221    5.32687155094068
C         9.52433227440759    2.37984775877671    7.56182484248329
H         9.86921895386146    2.88758200678523    6.65953971232224
H         9.71455220220773    3.02600570670983    8.41867613107912
C        10.32156983384005    1.09665088637812    7.75870947191867
H        11.38631318343468    1.31761374802065    7.78144634428161
H        10.14038091283830    0.38174368061297    6.95822588896405
H        10.04862345894373    0.64165641658633    8.70733545196514
C         4.09828243625992    4.08885703785870   10.04562241869737
H         4.07358392728057    3.07109882061491   10.45814501468502
C         2.89090762839254    4.26129410077861    9.10683322395754
H         2.78216388642764    5.31868787459606    8.85527179052010
H         3.09306952472568    3.72407667084783    8.17561156173380
C         1.59085801468409    3.73429444554854    9.69993161540906
H         0.78245987233602    3.83079275466662    8.97824192387651
H         1.31421916766123    4.28547322548137   10.59435425797068
H         1.69337269790957    2.68386172602849    9.96169627777522
C         4.04932832783158    5.03820628960099   11.24830416807008
H         3.94857177354904    6.07482629377451   10.92016943757407
H         3.17041568301241    4.79414876111200   11.84674350895926
C         5.29536559757996    4.87614805034149   12.11048757042732
H         5.21741905702290    5.46668539359675   13.02114231024757
H         6.18314902846557    5.19158345623642   11.56203375279980
H         5.40069585868391    3.81531021637947   12.39036299098938
C         4.71875179118857   -1.10694695522655   10.73927827606519
C         3.45396479723736   -1.31721295664476   11.29940126383781
C         3.26738766676548   -2.46867322783805   12.05421926125842
H         2.30909015668028   -2.65609499500464   12.50944838706641
C         4.29002332533106   -3.38027381542926   12.23156287956393
H         4.11774644338517   -4.27495985258438   12.81176252473171
C         5.53274003885397   -3.14912343463370   11.67599326975125
H         6.32234500937055   -3.86906990345831   11.82277478244767
C         5.77517155732527   -2.00215886714920   10.93070871514814
C         2.33262122211341   -0.31769487574589   11.13461273201127
H         2.79037069546576    0.65651515753293   10.93386771899577
C         1.41055897393247   -0.65141635460356    9.94440629057042
H         0.53073552270834   -0.00829358727653   10.01094378254899
H         1.91853490778184   -0.39979157531240    9.01105126564559
C         0.95531842933159   -2.10422657215874    9.87781580979097
H         0.29494256374894   -2.24553140397444    9.02432018208383
H         0.40927578359428   -2.38514048843842   10.77436987305974
H         1.80494354455044   -2.77519173776339    9.77039037840179
C         1.52854059844405   -0.16228954091414   12.43713739258867
H         0.75233664745635   -0.92698693958554   12.49716531599941
H         2.20818588973280   -0.29008602917833   13.27952369108614
C         0.89268679381345    1.21707911395988   12.55544017129404
H         0.30964639576401    1.28278947693380   13.47126129243840
H         0.23250832283293    1.43082804319162   11.71685855434047
H         1.67180668341957    1.97402387293441   12.59360744734585
C         7.12335333749256   -1.77542628927801   10.28345735431006
H         7.21549763541880   -0.71774106606283   10.00150552745105
C         8.28085607866010   -2.06284968233080   11.24665639698874
H         8.33196583736106   -3.12723144046761   11.48495663756075
H         9.21608310737927   -1.78874644401288   10.75624931334574
C         8.13197812009476   -1.24264615452753   12.52223318613055
H         9.00348929413762   -1.35856589787988   13.16338387714754
H         7.24564711275334   -1.55417880856079   13.07516705071243
H         8.03586557920323   -0.17837250496522   12.25262767422619
C         7.19472235336370   -2.62623847413012    9.00292246532914
H         7.31724279017056   -3.67628872617547    9.27773293490601
H         6.24296933955987   -2.53760400877018    8.47095076946109
C         8.31749609654275   -2.20269021494684    8.06496542041693
H         8.29067359325885   -2.79718884630680    7.15419388070526
H         9.29039359956402   -2.33779870007822    8.52923947950100
H         8.20875691772654   -1.15515192789300    7.79410159114093
C         7.33126144213923    1.38451198911044   14.63178188272375
H         6.76053796749484    0.46903990284620   14.52858589378340
C         7.97261847566032    1.68769086658051   15.82514117957999
C         8.66713525686837    2.88297345743023   15.94768909550880
H         9.17081417087819    3.13572769198601   16.86731544252504
C         8.68734311156998    3.72968006931896   14.85227515654415
H         9.21043755456271    4.67171110716620   14.89487825942252
C         8.03091868498400    3.35474970073992   13.69230346560220
H         8.05323981096527    3.98625684842110   12.81237005400403

