78
CSD_code = COWXUH | q = 1 | S = 0 | Stoichiometry = C32H42P3Ru(1+) | MND = 8
Ru        3.22597189478232    3.90214334110082   10.23486969467983
P         4.84663130092208    2.20421202201962   10.45574152891395
P         2.62926321319318    3.68857473369712   12.50163899689539
P         1.44938538146131    2.73164365870893    9.22750927189944
C         5.44393244780820    1.38990218697739    8.91830121867896
C         6.47804373053358    2.75818571542249   11.09609552040279
C         4.54216542015551    0.71691264628493   11.46924511425559
C         5.20100866970286    0.44087356285793   12.66282353946639
C         4.90789252994956   -0.71450160457456   13.36895677356081
C         3.95712341640580   -1.60307261417979   12.89706242459506
C         3.29135067867631   -1.33267587762706   11.71162894347712
C         3.58107188561365   -0.17933243745379   11.00872712440401
C         4.03585166196130    4.00021596249738   13.63721821164344
C         2.01334951416244    2.15149288868466   13.29441118646472
C         1.38036958740461    4.87230712442002   13.11834596519475
C         0.02958209846794    4.56591777551394   12.97717453375924
C        -0.94460967145042    5.44948685307406   13.40300595658290
C        -0.58213087117042    6.65602209876218   13.97882262020557
C         0.75804460917120    6.96438288024717   14.13820685297876
C         1.73386132277711    6.08101178637465   13.71068366625888
C         0.38031806062876    1.55760145407544   10.15598641189876
C         1.86250250782159    1.63689065155692    7.81380763442229
C         0.13005829439391    3.77015588089205    8.51082987111100
C        -0.09285919480735    3.89249195596243    7.14483630019645
C        -1.12416888690506    4.68956587232837    6.67659872208529
C        -1.94102191206646    5.37100850380300    7.56200069587218
C        -1.71920850891628    5.26019628495948    8.92573143797742
C        -0.68795507199048    4.46961075307230    9.39425188894840
C         3.77099708495228    4.58191840904064    8.08474835789362
C         4.78862166496337    4.88724774503360    8.99864490427380
C         4.63907945464160    5.62973208976991   10.20207231451402
C         3.39443013162214    6.07711850013988   10.69186844686591
C         2.16289947089405    5.90808567238901   10.02795389052651
C         1.94028772978904    6.27937687712802    8.59834263593814
C         2.99344680875895    7.03159331261190    7.83507047923194
C         2.77278943656857    5.56467706523854    7.57641766814374
H         6.22923877129558    0.67875552176124    9.17577948710234
H         5.84492694251175    2.13914855456191    8.23720731260697
H         4.63460214118538    0.86372265416902    8.41974576186310
H         6.92969514736997    3.44560656552135   10.38298402439274
H         6.37610314959445    3.27036325545308   12.05002200348052
H         7.13211994146483    1.89314746721458   11.20613421921456
H         5.94909387168231    1.11477342411100   13.05174280914501
H         5.42928568795970   -0.92145585033002   14.29125448894450
H         3.73634647802826   -2.50307440249047   13.44927391894572
H         2.55081602378780   -2.02336307219845   11.33706205333382
H         3.06262187708191    0.04250699661189   10.08676885485902
H         4.62461822178897    4.85835317501055   13.31755021733954
H         3.66329847101807    4.16229255201204   14.64874910671525
H         4.66496267061374    3.11129864179370   13.62791635046870
H         1.83374371266691    2.35938463981192   14.34977512689117
H         1.09294910530982    1.80761670357706   12.83369874178040
H         2.76429964425564    1.37060161975955   13.19836898686047
H        -0.25983530268889    3.61824431336523   12.54675155629328
H        -1.98775466964195    5.19506081350734   13.28873959244917
H        -1.34030461666674    7.34864210773478   14.30962201502418
H         1.04711528095580    7.89649821431107   14.59989139982000
H         2.77277755069644    6.33717576577756   13.85987729606623
H         0.99313612447563    0.81210401497935   10.65943443484131
H        -0.20995966817676    2.09649174705027   10.89243642941055
H        -0.29754464502569    1.06873440438177    9.45580322620122
H         2.47634767611817    2.15902549410670    7.08372907264362
H         0.94216424107799    1.28800567299846    7.34562283573008
H         2.41450890865247    0.77462975809865    8.18238868499827
H         0.53292047194894    3.37544602536152    6.43402065067299
H        -1.28979865699979    4.77728603473499    5.61319870197716
H        -2.74402459778875    5.98958349858838    7.19178217720368
H        -2.34769423715505    5.79450514325993    9.62260176870411
H        -0.49795102813920    4.40646460298864   10.45606251413402
H         4.07836257922174    3.87843830117571    7.30932560238893
H         5.77880975836765    4.46829084473223    8.81838878756753
H         5.53633448310489    5.86462944462692   10.77029767384260
H         3.39051722329427    6.49380291191093   11.69792300529722
H         1.29986994529276    6.16808289659115   10.64326248723120
H         0.90814539062643    6.49320743468169    8.35430555187999
H         2.66624634474032    7.73241002101248    7.08208830846347
H         3.89476453874303    7.33225281883687    8.34886761704696
H         2.30774915650221    5.28493553800112    6.64031434184923

