94
CSD_code = COWZIY | q = 0 | S = 0 | Stoichiometry = C36H53N2OSiY | MND = 5
Y         4.45909386447536    4.54238667428771    6.96785137627512
Si        6.54302660622001    7.34104362172802    8.04217272812675
O         5.12246994414330    4.88743588434099    4.29147950752246
N         2.29893647013520    5.05744217056408    6.80565553432109
N         3.07008215840496    3.10524091762504    8.62330581012464
C         1.65674627703109    5.20092109563953    5.56478068366218
C         1.48984724070305    6.49984718704036    5.03159298150535
C         0.89003413794479    6.67895140009312    3.79633743835359
H         0.77168097698877    7.67627381549546    3.39783351225142
C         0.42421819683101    5.60082942881306    3.06760893506296
H        -0.05903769809373    5.75190542870658    2.11331186975386
C         0.59569272462402    4.32496243318851    3.56912808907776
H         0.25033924045128    3.48226233183833    2.98684409862475
C         1.20532784582621    4.10430322986634    4.79572469340737
C         2.00444358699412    7.69552058745730    5.79783236060729
H         2.31723097012550    7.33246723337285    6.78265094646692
C         0.93383392692829    8.76985120535439    5.99134532282436
H         0.03652743468559    8.34353268863056    6.43571746792432
H         0.65866848829891    9.22846735350301    5.04446742661593
H         1.30619909834822    9.55216739264241    6.65024182629726
C         3.23472676760832    8.27581702502709    5.09674947223564
H         4.01770104650772    7.51948781164024    5.04544049140065
H         3.61856737614047    9.13170509822936    5.64751705195160
H         2.98812394330040    8.59623176369743    4.08600735217069
C         1.46119689327920    2.67898668697349    5.23322172486271
H         1.90393792714067    2.70157234918835    6.23392491732161
C         2.47594822945548    2.03005050746942    4.28500404529589
H         3.40543820007556    2.59963843718537    4.28966097543961
H         2.08722889833762    1.99874259954670    3.26874878993284
H         2.68972092761380    1.00970457186056    4.59956553364270
C         0.18472281086547    1.83816638895454    5.29478463153415
H         0.40636483098085    0.85438463486636    5.70510407447902
H        -0.24531471744195    1.70516136120210    4.30480571360518
H        -0.56271347245505    2.31027175277623    5.92828041404397
C         1.46587589936401    4.78118791232508    7.98010563192601
C        -0.02817094065335    4.98693749709969    7.70517224603114
H        -0.40110793574355    4.26964454656765    6.97992390320687
H        -0.17840049261413    5.98326588929272    7.29681152775221
H        -0.60112240601234    4.90273367336175    8.62592876779284
C         1.86394843057168    5.74482715347765    9.12980631589727
H         1.58188022275368    6.76341744919825    8.87372763783665
H         2.94336308500433    5.70371812295752    9.29941068257284
H         1.35110660946997    5.46198745734984   10.04837318494387
C         1.76805611149750    3.37439304358346    8.51483269415505
C         0.80697988674095    2.43227455464363    8.86652305193105
H        -0.24453237880146    2.65045134132166    8.78576669815113
C         1.22540387921754    1.18566618804608    9.30625963382877
H         0.49667300888048    0.42980137950853    9.56384149718730
C         2.57705147173757    0.91656498297779    9.40864758488603
H         2.93152991150169   -0.04841839502913    9.73436797056518
C         3.48745508049047    1.91534229474519    9.06147993444351
C         4.94993103382620    1.71965763891455    9.15627974112256
C         5.53388309283690    1.40381313598719   10.38293964603601
C         6.91377597251587    1.26458900657932   10.46815863462721
H         7.36588350249497    1.02157431345021   11.41853863195649
C         7.70769849806868    1.44946824174000    9.34862982414000
H         8.78036989211566    1.34053343108563    9.42648295008608
C         7.13510529511320    1.77034270768876    8.13851848438562
H         7.76370453770000    1.91400711431775    7.26879637247692
C         5.74676104584041    1.91642286769051    7.99848160683549
C         4.71587051822488    1.23891562302368   11.63356266624205
H         5.30547504149240    1.52315090649677   12.50272230239541
H         4.41748765276665    0.19800763905247   11.76297272091555
H         3.81706816144270    1.85065123888882   11.60710112813039
C         5.16056286537851    2.25104042760035    6.70107938779330
H         4.23955626935686    1.68417018456344    6.52746366436098
H         5.86868666239338    2.03699733014955    5.89248927078926
C         6.14170272419256    5.52534665886155    8.30734683639717
H         5.85743797356256    5.37248622562704    9.35845263172206
H         7.05930605090862    4.93851872518258    8.16909964686570
C         7.99942667907643    8.04798548997910    9.07162059014504
H         7.80194247608945    7.96104265949540   10.13555497736625
H         8.17840202180086    9.09726138063401    8.85604955847689
H         8.91996827713724    7.50973826630165    8.86747945570428
C         7.01260995855385    7.60684925013519    6.19953985131758
H         6.30533682293208    7.11152543556216    5.53754686421785
H         7.99809955174906    7.20076608896746    5.99190489201688
H         7.03217246837268    8.65957022591399    5.93590112962870
C         5.00371934355736    8.39973101588103    8.46718028102537
H         4.84159736853256    8.42846273948807    9.54034600819146
H         4.10765862301339    7.99010292836689    8.00921532368931
H         5.11331057608048    9.42524576945480    8.12820107186114
C         4.36796475679030    5.21207903082329    3.12438405909220
H         4.59905183010682    6.24280451008749    2.82290133233450
H         3.31018831287009    5.14194369448727    3.37551255073450
C         4.81124981054503    4.22271647251438    2.03076921132825
H         4.05252712422534    3.46233369234584    1.86048604019622
H         4.99033735452783    4.74282736794314    1.09190701983259
C         6.10158496080061    3.60656983680552    2.59610746709259
H         6.91750357472356    3.60317813612103    1.87754319964508
H         5.92422367158962    2.58416296255076    2.92872731815693
C         6.40256291372755    4.50152877392749    3.80047342005394
H         6.94118162424837    4.00096940569909    4.60637512140308
H         6.96031251276257    5.39558328942329    3.48708034944745

