46
CSD_code = COXBEX | q = 0 | S = 0 | Stoichiometry = C15H27ClNPPt | MND = 4
Pt       -5.80735237472252    3.32922125100656   10.96781792099395
Cl       -8.01303300996862    3.02121365078931   11.37750639930683
P        -3.68239269048425    3.81807002279877   10.36167533721444
N        -6.24579430429075    5.04849837075757    9.62611437609611
C        -5.48624603288094    1.81112205610849   12.30693850379836
H        -4.44130034863410    1.55263937375771   12.48638889725521
H        -6.00362302682455    0.91546842513641   11.95086655791418
H        -5.93758592802567    2.08815741301806   13.26490062826672
C        -3.95597346945189    4.87703407812889    8.85841716989686
H        -3.11686479764015    5.54227172817187    8.64464161986974
H        -4.06459426136771    4.18068572814147    8.02084341885148
C        -5.23969112744610    5.63601971845092    8.97345305291880
C        -5.38802593718901    6.88687568987729    8.38643954161251
H        -4.55561208984000    7.34049959047203    7.86881795101456
C        -6.60777883313907    7.53739109455092    8.46873453826357
H        -6.74015276947544    8.51115715920695    8.02131181947188
C        -7.64851721493194    6.90800394264442    9.13164741705521
H        -8.61916823502786    7.36919669817544    9.21551851693007
C        -7.41913052320497    5.66574801254606    9.69703899745643
H        -8.19766978616470    5.13060651278434   10.22728428632838
C        -2.80130768074792    4.98262909374190   11.55754296406559
C        -2.73030669692563    4.27747123346432   12.91239627269502
H        -2.03697747876130    3.44228754490302   12.90058801921425
H        -3.71979955756984    3.90581723882661   13.17963603906865
H        -2.40381371736251    4.97705915748355   13.68053220920150
C        -1.41982149026664    5.46221949813575   11.12613432169951
H        -1.06755694861954    6.21887922961015   11.82669189082003
H        -1.43978521290951    5.91205438473389   10.13531957821991
H        -0.69955579414401    4.64811121298881   11.12964266866149
C        -3.75220212717420    6.17367597272339   11.70794231423067
H        -4.76334169244331    5.81385728114404   11.92183077160084
H        -3.77851827794352    6.79106939570187   10.81219655843018
H        -3.43640975620595    6.80103440673090   12.54020308854115
C        -2.54899746766242    2.48494083805458    9.64425405141179
C        -1.51526180329951    2.98715146586155    8.63623011028839
H        -0.85009529388712    3.72546877054562    9.07377722474634
H        -1.97991045458954    3.41790107522583    7.75334750465882
H        -0.90781425726123    2.14436183213640    8.30782980356851
C        -1.83548672629308    1.73864902945158   10.76986262631368
H        -2.54421210749367    1.44159226792904   11.53860008066659
H        -1.05617397990080    2.34937464452548   11.21917935429147
H        -1.36633878625160    0.83796887463929   10.37556372622907
C        -3.52439870224140    1.52301892947542    8.95709359928132
H        -3.00655583948841    0.62153327998504    8.63432610908945
H        -3.98247189781159    1.97665418910371    8.07960028805150
H        -4.32127949203711    1.23923863635414    9.64872187443925

