33
CSD_code = COXBUM | q = 0 | S = 0 | Stoichiometry = C14H16O2Ti | MND = 12
Ti        0.00003785365021    1.43989671729787    3.67729362409025
O         0.82438844601661    2.65419190816356    2.71919872332933
C         1.68665072685002    2.93529903614788    1.77394650539627
C         2.23379099694775    2.05278706335524    0.93414810300387
C        -0.59397166244806   -0.16098613724681    1.97989032282165
C        -1.38675497028744   -0.46659254714968    3.11054350188001
C        -2.26011177154388    0.61058906859105    3.33407546199020
C        -2.01936763970351    1.58122675448030    2.33611544864591
C        -1.00669867281223    1.09237564834870    1.48893242078630
H         1.94694944523040    3.99671969728853    1.69912680610513
H         1.98474878227713    1.00350364160514    0.98255511350706
H         2.93263054648789    2.36614385149402    0.18134489216709
H         0.06977702127932   -0.84901804310490    1.47018954597021
H        -1.42453591629232   -1.42511710829568    3.61344626713787
H        -3.06414640550495    0.64088429570189    4.05681222136263
H        -2.58338059712414    2.49394434156461    2.18947767000835
H        -0.66755993599896    1.56281023547736    0.57529775289660
O        -0.82484842579716    2.65419322410852    4.63493062271132
C         0.59402753199990   -0.16101079696745    5.37470725302693
C         1.38676523248909   -0.46667648790431    4.24403785286844
C         2.26015517456712    0.61046860124644    4.02045164610877
C         2.01948260539920    1.58113624462503    5.01839974492320
C         1.00682806343381    1.09234168913037    5.86562950851218
C        -1.68679858413112    2.93527071749997    5.58046067878677
H        -0.06977737740248   -0.84896544413516    5.88440222830081
H         1.42445158829183   -1.42518522311410    3.74112308670440
H         3.06411206740870    0.64075328368589    3.29764561437401
H         2.58347235517456    2.49387300275464    5.16494645614948
H         0.66767351455929    1.56285253651213    6.77920972403501
C        -2.23376809554229    2.05271603890321    6.42031851955279
H        -1.94702249473651    3.99670535555188    5.65545506618112
H        -1.98478155089757    1.00342447726195    6.37176645264767
H        -2.93241785184018    2.36604435712182    7.17332116401836

