75
CSD_code = COXBOH | q = 0 | S = 0 | Stoichiometry = C34H34Cl2N2P2Ru | MND = 6
Ru        1.70356060948843    5.83706553433293    9.59771141504976
Cl        1.46961546428747    4.30465241975424    7.79729948355425
Cl        1.83175610776064    7.36551863679871   11.45718757739585
P        -0.17901503428463    6.89166373710750    9.08212743917743
P         2.74030107522278    7.56115854176543    8.61516301393018
N         0.86561609134828    4.59875648714311   10.86132938961982
N         3.37384378975246    5.02742019510170   10.22303552996217
C        -1.46758629010309    6.64538347344184   10.31636128577512
C        -2.61167162055761    7.43528657115195   10.24900939325408
H        -2.68762696996224    8.16685441927146    9.45489023552230
C        -3.62902840441146    7.30279775613383   11.17268199742798
H        -4.50557194178497    7.93053668317122   11.11549847785527
C        -3.50661441865077    6.35428955442409   12.17965155539718
H        -4.29290983460300    6.23852435062581   12.91094778732008
C        -2.38416828660135    5.55978793703108   12.25001487998190
H        -2.30928522375013    4.82596595549152   13.04066867167325
C        -1.32875098367837    5.67154451099786   11.32706904325492
C        -0.21374623080531    4.77436883728998   11.54351048606458
H        -0.34055481529814    4.16768011511467   12.44411149722736
C         1.80645776327826    3.60997260090529   11.36567294264877
H         2.08012380972821    3.89167961744749   12.39759177838257
C         1.25952282476555    2.17950996901150   11.35948678275904
H         0.33911423079753    2.11832437698686   11.94335674152201
H         1.02506824772279    1.90092692431192   10.32953021612700
C         2.30694772884230    1.23479267493344   11.94382514507245
H         2.48249114782674    1.49686398968934   12.99054978853825
H         1.93077889495835    0.21083088233281   11.91514967733688
C         3.62146782783058    1.32079553753325   11.17277993449541
H         3.46282711172276    0.97212475674311   10.15032778484903
H         4.36416662905991    0.67022357833806   11.63839817994539
C         4.14835444923291    2.75544819277315   11.13192423248451
H         4.37396130795562    3.09631413934851   12.14618702451120
H         5.06531937463127    2.78572634597259   10.53955189036978
C         3.07869332859443    3.64049011527010   10.49487165938622
H         2.81512982392653    3.21344465955768    9.50987252853816
C         4.49703717574676    5.56956349446523   10.51896589281310
H         5.25299227902352    4.96793727369887   11.02408086515619
C         4.92224804223527    6.93979790680235   10.29602403535962
C         6.12802068963306    7.30273215013213   10.91603663771927
H         6.65460858172462    6.56191453753454   11.50203333352124
C         6.65238137761179    8.57271594478157   10.81332962611392
H         7.57644150005139    8.81637337632766   11.31629143276568
C         5.99377953226662    9.53269346598806   10.06055534516097
H         6.39670971823294   10.53049375393726    9.97138839890862
C         4.81571673466440    9.19735619425463    9.42148098307598
H         4.30536432109432    9.93862546728231    8.82244094951085
C         4.26042202337929    7.92902379151560    9.53990049425478
C         1.64133709107578    9.06268261950740    8.75923759034228
H         2.06632934397416    9.69349334467718    9.54546982218381
H         1.67548826732287    9.60743416124131    7.81173095875910
C         0.18000696548969    8.71904101309807    9.10779897666725
H        -0.51149230302303    9.23157476531412    8.43092487633349
H        -0.03822847501352    9.03155062281594   10.13357828299055
C        -0.98081918658132    6.65675549476077    7.47688352689129
C        -2.19802599686177    6.01063067265613    7.30393854713218
H        -2.76159553945360    5.67988649145471    8.16572210162348
C        -2.67868961335998    5.78767005349843    6.02519588572046
H        -3.62681543049460    5.28754216112061    5.88938823254196
C        -1.94410347168210    6.18907455375866    4.92223436711413
H        -2.32126351774097    6.00376542841749    3.92715084665273
C        -0.71600758633972    6.81043982986824    5.09195069578534
H        -0.13060445217398    7.10244026203077    4.23216966493880
C        -0.23423392275289    7.03930340212649    6.36461021360504
H         0.74075929374291    7.49304291701687    6.51269258597166
C         3.42864622923070    7.62657253930782    6.92495028223954
C         3.79446550701453    6.39465191456356    6.38903842735780
H         3.59812775644919    5.49467392596383    6.95861172654714
C         4.36110620360183    6.32101586682081    5.13021396752866
H         4.63052517570495    5.36037623316950    4.71721162604389
C         4.57265357498738    7.47784206375659    4.39859564465406
H         5.01032012744377    7.42451552615641    3.41240527880090
C         4.21956070187033    8.70693847101884    4.93116200456089
H         4.38617278782392    9.61071803149313    4.36236606009662
C         3.65191527285760    8.78615337751920    6.19013548917245
H         3.38675563698297    9.75656282284003    6.58635885696942

