71
CSD_code = COXDUQ | q = 0 | S = 0 | Stoichiometry = C37H15AuF15O2P | MND = 4
Au       10.60666289850341    0.00941305639458    4.86591931931220
P        10.70363847202516    2.25325574903571    5.49748931022512
C         9.31026957082016    2.83490964036752    6.51430766808345
C         7.99324196909456    2.66489325508093    6.05330628455049
C         6.90489562693192    2.99991148200697    6.85216935599839
H         5.90689641215874    2.85359291282716    6.46898822887859
C         7.12009946881200    3.50336190088671    8.12116472735513
H         6.28179749716584    3.75867375799160    8.75040386267728
C         8.41636570640017    3.66159924483768    8.59052161025077
H         8.58389514151706    4.03714125632948    9.58845298647703
C         9.50391665744887    3.32600146028981    7.80089395961550
H        10.50363284065712    3.42486398086188    8.19607829462948
C         7.85016460563202    2.04702431096384    4.73312067546726
O         8.83919784463628    1.82569269408529    4.05223620391480
O         6.63067273918075    1.71629041138091    4.35813496177590
H         6.64630948757604    1.25930218778856    3.49850658599642
C        11.01914585347538    3.52463541567110    4.24291695558236
C        12.29282476925682    3.53869789569414    3.67886202109254
H        13.04070746396592    2.83778759431399    4.02777047616594
C        12.59831194776273    4.44824228790609    2.68461323253780
H        13.58239164575255    4.44893952397903    2.24023814764083
C        11.64092969292088    5.35458521165343    2.25806785285143
H        11.87698743740430    6.05885991480585    1.47515041500304
C        10.38411783284203    5.36039195016578    2.83961930635670
H         9.64302706963546    6.07658033068417    2.51745289012558
C        10.06702273474055    4.44693993904044    3.82901938782233
H         9.08456484297058    4.45676647820058    4.27895484303515
C        12.17042593862168    2.52870976239472    6.54229245519482
C        12.57028777956764    3.82574454897695    6.86588025375815
H        11.98132744324048    4.66855385363293    6.52581893697791
C        13.71567613577968    4.02955985438860    7.61020384056996
H        14.02031475452431    5.03444499527691    7.86282621983532
C        14.47606978678949    2.94617567873121    8.02604206887715
H        15.37368937690098    3.10994782728638    8.60303840085054
C        14.08848640548273    1.65851079245059    7.69776406051647
H        14.68075934258927    0.81377176261572    8.01389471915829
C        12.93821355460787    1.44810606601147    6.95690343729621
H        12.63151957727095    0.44209210359423    6.70733095165956
C        10.58784099212140   -1.94464109005903    4.38645010825680
C        10.87889187009246   -2.89982703898088    5.34815757517057
C        10.87717701332515   -4.26389392766924    5.07633068828285
C        10.57268435528535   -4.70125652103602    3.79178835126045
C        10.27617716061333   -3.76820193757767    2.80445569241733
C        10.28913980642144   -2.41157034578900    3.11633702931088
F        11.16529710452816   -2.49793971133371    6.59644293985073
F        11.15817204917101   -5.14916810398169    6.03633252653942
F        10.56427209142789   -6.00521160195868    3.50965766359215
F         9.98534227598566   -4.17585086863672    1.56608960941626
F        10.00614066456756   -1.53640031912160    2.14315362477777
C         9.11789608930152   -0.31408398888588    6.20564496130372
C         9.22649853614194    0.01408082536057    7.54946438528498
C         8.16959036026515   -0.08119516966044    8.44692546552671
C         6.93715465884313   -0.54515709864370    8.00339026632348
C         6.78969107901096   -0.90547276445341    6.66941098661725
C         7.87459495912084   -0.78391412470535    5.80722321589884
F        10.39136062519780    0.50504982574547    8.00535952763856
F         8.32271910179785    0.30530344898163    9.71880585087259
F         5.90146961852778   -0.61936312129723    8.84269612304494
F         5.60836546578988   -1.33796071305474    6.21738434871673
F         7.68022032782563   -1.10092977820984    4.51298113652972
C        12.05014076762344    0.27275206520750    3.48904791638591
C        13.33598390676876   -0.21718094925709    3.66848300032648
C        14.35558583741845   -0.03848805894448    2.73989298042565
C        14.08772811023135    0.65210836686268    1.56351399220976
C        12.80533776187853    1.13690473063362    1.33687535669883
C        11.81219445396017    0.93678640081997    2.29176510863824
F        13.61908634106938   -0.89705019179478    4.79444989333126
F        15.58235153194009   -0.51716595798062    2.97398448966567
F        15.05442388479625    0.85200120855182    0.66359410133924
F        12.53688716803124    1.81055591888434    0.21287292356166
F        10.59612570581938    1.42350950263295    2.03038325284503

