47
CSD_code = COXFOM | q = 1 | S = 0 | Stoichiometry = C12H24ClHgN6S3(1+) | MND = 4
C         3.42493211455591    6.21690379129807    6.74980460342546
C         5.82100659412423    6.77536881599862    6.53934538758729
H         6.64311529012426    6.79848218918099    7.25909333026198
H         5.60801789871742    7.81613787716996    6.26402155244855
C         6.26610377338602    6.01105599070094    5.31927561029746
H         7.08924428396276    6.47941321129057    4.79861945799343
N         3.12029100527217    6.80710028322255    5.60264498936354
N         4.66882000075179    6.21234107217514    7.21282776049692
S         2.26599819117483    5.40363958938121    7.71020665168117
Cl       -0.00000833573113    6.60750880573431    4.71267999281311
Hg       -0.00069827196874    6.60689435931424    7.23193740931452
C         5.75524750171827    4.87278641086867    4.89221505091436
H         4.94368230472440    4.37290953556059    5.39581816278853
H         6.14055691077409    4.38168665977522    4.01726387368343
H         3.84434290413318    7.18276913433166    5.01100818354616
H         2.18295302921902    6.74169175190455    5.21553885482956
H         4.81904084477048    5.69958687310884    8.06966482209936
C        -1.37429729955823    9.76858489137064    6.74966766025679
C        -3.05583518653910   11.56444394452699    6.53944121019890
H        -3.48680986779028   12.26479226906097    7.25912468185914
H        -3.85069255835340   10.85978708570938    6.26402095342865
C        -2.61667961242974   12.33200448378605    5.31937362661439
H        -3.43408330911291   12.81068086761387    4.79892250724589
N        -1.73316716061647    9.20978930073863    5.60247366619241
N        -1.99224250965869   10.84807208022467    7.21283622860133
S        -0.09050592320778    9.17142619012486    7.70999448041147
C        -1.37547614415392   12.45887891043699    4.89214779589154
H        -0.53729700025662   12.00627421076334    5.39650782653533
H        -1.14320951188714   13.03817481845259    4.01643064349043
H        -2.42056294258944    9.64914705087977    5.01096018741052
H        -1.20783861001034    8.43081650787959    5.21525150899894
H        -1.62325884687481   11.23445702488154    8.06968915103474
C        -2.05068024210071    3.83669694946194    6.74979309035502
C        -2.76500180566731    1.48245723736337    6.53939651434778
H        -3.15590681918778    0.75895108487615    7.25907734713646
H        -1.75726740813751    1.14656435361074    6.26392164250167
C        -3.64951344794258    1.47892784464404    5.31945732862823
H        -3.65505907794378    0.53184667857160    4.79875659299576
N        -1.38723851494828    3.80540935198846    5.60264370331605
N        -2.67652981703321    2.76172814667638    7.21286715091642
S        -2.17554172707766    5.24699472542372    7.71019806424664
C        -4.38015294912647    2.49032631776187    4.89236143416122
H        -4.40680606209813    3.44283174925096    5.39620697406440
H        -4.99742352792600    2.40209452051089    4.01636997350341
H        -1.42394728553878    2.99050877714756    5.01102762895495
H        -0.97520014525578    4.64986240756873    5.21557017585740
H        -3.19562072667398    2.88799386764804    8.06974455728882

