53
CSD_code = COXGUT | q = 0 | S = 0 | Stoichiometry = C24H22N4NiO2 | MND = 6
Ni        0.40595670028764    1.47183027913810    4.17688878725093
O         1.84388718353229    3.39936381679562    3.83081523094764
N         0.07971526696324    2.09550363595843    2.45007817074541
N         0.75920766255843    0.85631607116070    5.90242022915981
N         0.13602051117776   -0.32851031921249    3.33254688430122
N        -0.65859225770544    2.87323394547262    5.13974404034484
O         2.69336745496130    0.65094886855028    4.18810806833210
C         0.12194141397739   -1.63524982182687    3.55858921591975
H         0.36771288282744   -2.05524028666758    4.51886078903895
C        -0.23629754727800   -2.33708039432504    2.39685557732598
H        -0.32498753916336   -3.40338025800223    2.31074779928605
C        -0.44659662875138   -1.39703996794946    1.40816979640508
H        -0.73704843289125   -1.56682007693037    0.38908576027466
C        -0.21259626730264   -0.14557783932259    2.00705651566544
C        -0.20107860764812    1.17808858890141    1.56136764049618
H        -0.35531660132995    1.42981989457962    0.51481126858934
C         0.24410332956294    3.43402869919001    2.12790667247036
C         1.18539416419498    4.15318385316535    2.89973036104276
C         1.38568483779267    5.50149433412511    2.66580289621875
H         2.09224767870588    6.06718734918718    3.25211776376627
C         0.66605173107054    6.14293326449451    1.66584621085446
H         0.82664444339133    7.19606241972273    1.49246729603048
C        -0.25316344921195    5.44660710755638    0.90451066042970
H        -0.81635780100591    5.95407832043298    0.13619583036955
C        -0.46668586122336    4.09782242099570    1.13390416295009
H        -1.21071952275511    3.56221020772985    0.56344534089512
C         2.66734302567884    4.05913018202717    4.76222221238811
H         3.52064109466439    4.53782755238274    4.26882794811825
H         3.02888933960243    3.28786421421298    5.44005294022620
H         2.10524126643904    4.80627968700210    5.33145265301361
C        -1.42009572444008    3.94755288048777    4.98208277692325
H        -1.60183656972959    4.38666993896632    4.01615237555601
C        -1.91099036309061    4.39499215310887    6.21872536679926
H        -2.55232210300859    5.24252421282567    6.36925269730699
C        -1.41141088028607    3.54178029146083    7.18195287147133
H        -1.57914686885403    3.57428331257670    8.24143642989969
C        -0.63205205330058    2.59389592676076    6.49367285296876
C         0.17107534991832    1.51409967322673    6.86771140683166
H         0.34941138221433    1.27013513074217    7.91226727107742
C         1.67392678639621   -0.16071621788599    6.12820246736163
C         2.71176903571382   -0.29269324849180    5.17711915844429
C         3.64497454499088   -1.30502269571093    5.30780177543838
H         4.43610325675151   -1.42665644212944    4.58507455444126
C         3.56451166861993   -2.18386512493070    6.38034103246326
H         4.29509035772957   -2.97297399007019    6.47232893723675
C         2.55642401329626   -2.05879705194617    7.31716971466182
H         2.49422951067531   -2.75154013484709    8.14256015463455
C         1.61241489455446   -1.05348518633417    7.19279903005916
H         0.80387133258119   -0.97860713019209    7.90450733186554
C         3.56987180768379    0.49204820462153    3.09832064719810
H         4.61577221921813    0.57475505315706    3.41445565820578
H         3.33701514174309    1.30044653827815    2.40743542630953
H         3.41198378950290   -0.46834184222412    2.59740133994185

