30
CSD_code = COXGUR | q = 0 | S = 0 | Stoichiometry = C12H15O2Rh | MND = 7
Rh        0.68990893795885    2.36984745308141    1.75960296349212
O        -1.20076309017682    4.14780891247833    0.25436973964651
O        -1.43652717459404    1.92064458305471    3.82818041525803
C         2.92089837858600    2.73950480086175    2.05829589609710
C         2.58629901828271    2.62785211631083    0.67021948705700
C         2.18633576458483    1.25893714314142    0.40155640604344
C         2.13029826694456    0.58091224421086    1.63671229274160
C         2.51730350678878    1.51814769551454    2.67718695900911
C         3.70219312025820    3.84912818435988    2.69602206369197
C         3.02546054095940    3.59363926349777   -0.39492875175437
C         2.08817139489118    0.64423200110472   -0.96230492239896
C         1.96511327743201   -0.89587635203018    1.83760615575150
C         2.85772554528846    1.10954775391965    4.08284686176103
C        -0.46483304710270    3.46502733342318    0.81448792455260
C        -0.61053024902884    2.07665241258489    3.04408699626003
H         4.77041431910273    3.64676108122465    2.58735281191772
H         3.47985818479362    3.93165027004455    3.75739702544278
H         3.49051072253832    4.80644317853527    2.22509676537180
H         4.04993650172654    3.36181462591516   -0.69308840986345
H         2.99995220123962    4.61897494508299   -0.03296061780620
H         2.39246052513926    3.52652383883688   -1.27697887008346
H         1.69987051653115    1.35295247399967   -1.69013677817717
H         1.44232955788344   -0.23082958117299   -0.95651586649129
H         3.08220963205820    0.33246599754515   -1.29067258638388
H         1.36253120795966   -1.33719632172015    1.04709765700026
H         1.49376094960839   -1.11670347602452    2.79256256023126
H         2.94692878014879   -1.37430643590175    1.82629188449434
H         2.82998660493136    1.96076840589332    4.75936736191398
H         3.86528016274961    0.68913528410965    4.10335228678689
H         2.16831594251585    0.35484016811837    4.45459428843783

