48
CSD_code = COXMOT | q = 0 | S = 0 | Stoichiometry = C23H16N3O5Re | MND = 6
Re        2.98498539098002    6.32420976075520    9.42478647412755
C         4.09641446760303    8.79457701490730    3.35390391925293
H         3.92263773512093    9.31395876328628    2.42444596019407
O         3.13294887607690    8.94838136252966   11.04449306406030
O        -0.09487675028111    6.17251236161593    9.55533884648800
N         4.50257918555370    6.86610346125035    6.96756399592327
O         3.10387719310334    4.31502396856070    8.36301730467867
O         3.33596525695357    4.98710849244162   12.19528647968501
C         5.41701849701753    6.14693180690260    7.72376847061282
C         3.72821627273803    0.94604805775387    9.49420352508008
H         3.74858647803442    1.13416849002419   10.55671319209742
N         5.11618900696371    6.07400350486724    9.03258070675410
N         2.60667337540366    7.88651976622549    6.61599568964665
C         7.13592999770416    4.86822217607353    9.41112405652739
H         7.79669043391628    4.38995577834275   10.11494987812405
C         5.97157623468500    5.47008561981052    9.85029715067637
H         5.70575302046596    5.46478955152843   10.89922730064594
C         3.05268923294636    7.96626192383472   10.44374741644572
C         3.18059303676983    5.03723126387247   11.03452398419424
C         5.60682638690983    7.50925910199711    4.75059402122395
H         6.58599493511935    7.08591740814441    4.89891107823614
C         3.09658605213861    8.75026475725820    4.30789335015289
H         2.14515767680076    9.23113066871552    4.14819252536234
C         7.40414909212997    4.86387923532591    8.04940931584289
H         8.27266603202191    4.35644258514429    7.65847319661913
C         6.53912576295254    5.51725394927169    7.19226473782895
H         6.70568051065874    5.50122219657955    6.12951337415866
C         3.46817193809735    1.78632060051204    7.24891688762127
H         3.28622089548277    2.61987003435638    6.58637519524920
C         3.50328666673875    2.00726459561794    8.62275372220417
C         3.27941925185073    7.16975510814551    7.52678077987242
C         3.65764218181685    0.51126265265017    6.75189578250789
H         3.62869981696062    0.33776509802761    5.68628467293248
C         1.05504534967257    6.26621060614286    9.53355472945105
O         3.37376607174075    3.51684868043332   10.42284424220758
C         3.30168970137046    3.38256626776153    9.14861298492569
C         1.29333442470563    8.43979997596491    6.79617145666399
H         0.59320246902108    7.99346105080935    6.08812724806062
H         1.32138092814480    9.51926369548583    6.64098035530544
H         0.96839373203184    8.22740489311244    7.81421659238521
C         4.60277599271289    7.42789745803364    5.70257050442368
C         3.36876930094746    8.06961481088770    5.48330952884343
C         3.88156950166327   -0.54472549531055    7.62128951474459
H         4.02787604720334   -1.54105594555209    7.23057672543969
C         5.33008825305506    8.19491223489288    3.57928763802440
H         6.09790869763252    8.26758092735679    2.82462858440729
C         3.91583289684672   -0.32688027159977    8.98969034329948
H         4.08879249181754   -1.15240000475748    9.66381349679658

