34
CSD_code = COXMUX | q = 0 | S = 0 | Stoichiometry = C16H11Cl2N3ORu | MND = 6
Ru        3.09525976321459    5.41474546485475    4.03729432729376
Cl        1.80265433194362    5.62000631046959    2.08947318198985
Cl        5.09789942451737    5.05712468036421    2.80077255958648
C         4.32440358814423    5.21383355737244    5.41406193199729
O         5.16093932217792    5.07438063997659    6.18174160928270
N         3.13797912144591    7.42598959081781    4.06322722029066
C         4.04521991346088    8.23025135319600    3.52328080298580
H         4.91138890861532    7.74000180369490    3.09081008299590
C         3.89876584054805    9.60598818962667    3.49888354677092
H         4.65597185886611   10.22027089626593    3.03981181496395
C         2.76376822074607   10.16839180345222    4.06793527166865
H         2.61873378788704   11.23771713912089    4.06807418222785
C         1.81304011553832    9.33392211234131    4.62553953078451
H         0.91607048532075    9.74166018520875    5.06309370255438
C         2.01258256659522    7.95457630227112    4.60461965929617
N         1.45466674282467    5.70656540205193    4.91070383863807
C         1.04320250578881    6.97372521136154    5.09162265018606
C        -0.21974747781561    7.22315103037374    5.61915330662833
H        -0.56319577589863    8.23244878834725    5.77546476364851
C        -1.04478763051365    6.14806793288159    5.91931401660341
H        -2.02553140075773    6.32151769737825    6.33337987849274
C        -0.62830521279072    4.85288989942953    5.64425880207966
H        -1.28926612198295    4.02024228907182    5.82000816936366
C         0.64328997128291    4.65430134131396    5.11593093502047
N         2.46039048827693    3.50668316042914    4.10049550189798
C         1.22601298123343    3.39601807909736    4.65106748777984
C         0.57660980410510    2.16366928986455    4.70009130613764
H        -0.40233296616749    2.08825303583594    5.14528743003590
C         1.18989664425985    1.04841470363883    4.16041656230346
H         0.69570458873841    0.08937402104253    4.18276639050904
C         2.44399320326889    1.18742125835214    3.58053911634456
H         2.94906381011277    0.34638284629703    3.13441681798084
C         3.04270952887267    2.43491119331834    3.57736763021376
H         4.02044906814739    2.59850279088752    3.13589597144314

