29
CSD_code = COXNAG | q = 0 | S = 0 | Stoichiometry = C12H9ClN3O3Re | MND = 6
Re        4.24990569598965    4.61498813072264    3.06760074383236
C         4.40249810832128    6.72797994018310    3.00892136796230
Cl        2.39598347184331    5.14205843208535    1.62151018468886
C         3.46368357678957    8.72645549837321    3.44649405142954
H         2.78707744496594    9.43493045786790    3.87508369577451
N         3.42441064148411    7.37736388389834    3.70862138340659
C         5.40086998336936    4.14672018572420    1.57394703620431
C         3.52032239357747    2.79620679851359    3.06335080453419
O         2.95929098284592    1.80530453740787    2.99701616022299
O         6.02555387261712    3.87861724366264    0.64685729583327
N         5.03828187827161    7.68456412137137    2.32206174268348
N         2.77281721145255    5.34542752376512    4.56022311997227
C         4.48083624784426    8.91225946095741    2.57772413875901
H         4.84308873132531    9.81116391500651    2.12218257255777
C         0.64069982522678    6.46864210000560    5.93421654707973
H        -0.19490723462739    6.90504293926271    6.45912136141253
C         2.53558736949099    6.66270546667644    4.50062818928687
C         1.96679669499387    4.59243492591924    5.30203095660911
H         2.19366201938732    3.53512537593360    5.33266069396084
C         1.47840693175076    7.26406451817509    5.17602165442992
H         1.30813637480452    8.32499882984906    5.09687860879477
C         6.16554770053663    7.47676481945726    1.45377921938968
H         7.08808899525163    7.41911264964357    2.03520669497462
H         6.23540248052150    8.30024306482091    0.74528215335698
H         6.03954269816412    6.54085409623304    0.91206822850131
C         0.89238232517047    5.10592418097167    6.00378786748156
H         0.26385134128419    4.45089714143816    6.58423866605207
O         6.44300531325861    4.13546306876441    5.19310954763671
C         5.63647692408897    4.29898669331055    4.38707531317152

