35
CSD_code = COXNIN | q = 0 | S = 0 | Stoichiometry = C16H14N2NiO2 | MND = 4
Ni       -0.01196481468396    1.81184098191859    0.34849125808028
O        -0.77235603323688    1.97362531805792    2.02228536428969
O         1.62969523452187    2.10664709584821    1.14070886784213
N        -1.63799052009836    1.40622747256333   -0.44228540998015
N         0.72706208546028    1.75002945511618   -1.34879255990209
C        -2.00180059149908    1.92277310927166    2.37313136429932
C        -3.07900433499348    1.63453666191396    1.47349741528843
C        -4.40287816421682    1.59291951184995    1.95363307091371
H        -5.19780656865520    1.37146337237459    1.25441547055751
C        -4.68585269767551    1.82557854173636    3.27065373947480
H        -5.70316756884008    1.79134376810701    3.62900432689178
C        -3.63992992378845    2.10968665223557    4.16081281207037
H        -3.86769270945533    2.29288873898615    5.20125447268511
C        -2.34330300766158    2.15664436606477    3.73313966784528
H        -1.53346791844114    2.37436879456336    4.41211084973510
C        -2.80973093214179    1.37331895124652    0.10975096400929
H        -3.66798637465952    1.11392071965207   -0.51467844674309
C         2.80103631604961    2.09650626384663    0.62576683871426
C         3.05787563026480    1.93571829586539   -0.77457444928193
C         4.38396542888202    1.93777844739745   -1.25020294114165
H         4.55087343193590    1.81332200314394   -2.31157135223012
C         5.44146759488930    2.09145055727036   -0.39766311312191
H         6.45386528473339    2.08983635370550   -0.77121232237679
C         5.20259749061405    2.25427760125907    0.97469419408149
H         6.04116853083762    2.37759289461684    1.64515559151026
C         3.93067830807646    2.25959637741032    1.47323960520266
H         3.73925293268870    2.38393673181772    2.52779455994251
C         1.97907207343446    1.79553145421669   -1.67865382271101
H         2.23704037804750    1.73337367969365   -2.73857802136073
C        -0.27063663765211    1.69970550760981   -2.40776184924389
H         0.10836952089774    1.16657952743527   -3.28852314631635
H        -0.51612139819679    2.72826136889690   -2.70320799846805
C        -1.51844927743206    1.02049944639798   -1.84124825347442
H        -2.41523414501763    1.29716579066249   -2.40933331049293
H        -1.39704662298794   -0.06954581275217   -1.89265343658894

