45
CSD_code = COXPUA | q = 0 | S = 0 | Stoichiometry = C21H16CrO7 | MND = 9
Cr       -4.99289008030359   -2.96225517219684   -6.82832522332670
O        -7.13354656001715   -0.54821111191501  -10.11216598763980
O        -8.20167235654398   -2.45882781790465   -7.19086803731171
O        -8.77747982189155   -1.53323070837617  -11.27662104460713
O       -10.33775344623713   -1.98659171035754   -6.69813994962919
O        -3.42347200579516   -4.86580903915217   -5.16222384316301
O        -6.50223011357186   -2.75261228802998   -4.27640037114507
O        -6.66369919229943   -5.41467523583895   -6.98779420850644
C        -5.43897803658139   -0.82446749172303   -7.50068524948465
C        -5.77326205391963   -1.70648835396793   -8.54933183459570
C        -4.81637864652841   -2.60362517249387   -9.06179611296185
C        -3.51988362319101   -2.62446472389865   -8.54889137236474
C        -3.18556086467725   -1.76465850478312   -7.48456138508825
C        -4.12338936419578   -0.87174844631797   -6.97213956213156
C        -6.43223706829173    0.15154195682947   -7.04188329769661
C        -7.78741847458205   -0.08029510927560   -7.31304922672126
C        -8.75464820337907    0.80454726647209   -6.86923729906613
C        -8.39096356445337    1.94222759204447   -6.16828335814180
C        -7.05293979064173    2.19782928076284   -5.92229726585502
C        -6.08271978763826    1.31300904649718   -6.35422225701516
C        -7.14162120214287   -1.62088339283624   -9.15727278110064
C        -8.17575490563677   -1.32475514886784   -8.06676499285483
C        -9.37269774761570   -2.68707310934704   -6.55596803959190
C        -9.29353293823022   -3.89907022951518   -5.68329743062259
C        -8.01985314467811   -0.61672158309681  -11.12029095247310
C        -7.91557408618472    0.59971852683288  -11.99686767979784
C        -3.99351520445656   -4.11316235428846   -5.82728021665116
C        -5.91072144730001   -2.79351614161886   -5.26811705961135
C        -6.02815482414259   -4.45029558907419   -6.97113902568673
H        -5.07411390898047   -3.21644188146078   -9.91904920442178
H        -2.76373193386193   -3.25904074359394   -8.99311021161842
H        -2.16718323662349   -1.74578394510329   -7.11480967639043
H        -3.82778159460475   -0.17921218267170   -6.19505918696139
H        -9.79435609823785    0.59158253283384   -7.06625257725588
H        -9.14876498174122    2.62819939430607   -5.82257833634731
H        -6.76122192900387    3.09052646563029   -5.38939777572701
H        -5.04529252411059    1.54315032512238   -6.16446658535987
H        -7.41563338472196   -2.55105290576398   -9.67248997801318
H        -9.17190597043586   -1.20528627590902   -8.51259245966123
H        -6.87214553934218    0.83786500585326  -12.18197349537663
H        -8.37150092728395    1.44153398804405  -11.47947628780011
H        -8.44148892615389    0.42295764545973  -12.92989908019704
H       -10.28842716853420   -4.15851480100122   -5.33483136900155
H        -8.65268502739228   -3.67920977213309   -4.83221873448492
H        -8.84781829384325   -4.72550808417653   -6.22877997654047

