73
CSD_code = COXQOX | q = 1 | S = 0 | Stoichiometry = C31H36N3O2Ru(1+) | MND = 9
Ru        8.88510051157968    0.22279360508508    2.71647684400849
N         7.99666593864117    0.14129600228217    4.51151863606320
C         8.95346525445281    1.02015762698109    0.59276675703555
H         8.68186567601946    0.57785175724877   -0.35877212354027
N         9.83493149338491   -1.54729587853293    3.30440323625863
O        14.19508161207288   -2.72264249999074    6.51339782567623
N         7.91525893978883   -1.58453128926327    2.34370511124354
C         9.67582702433954    2.35703137620872    2.95100497588464
H         9.97614665631111    2.94126750299441    3.81493286134017
C         8.33197274630262    2.45518048671432    2.47890715559692
C         8.81542825925708   -2.32696871415190    2.97160367762970
C         8.76866686302125   -3.81434955844871    3.13116408771471
H         8.18534543505069   -4.24705956081009    2.32133178786253
H         8.30959606281249   -4.10434933496765    4.07427826744664
H         9.78116904962891   -4.21205069992742    3.11174335269937
O         2.75407257927220   -2.85054091318620    0.77938532943615
C         3.99821681661244   -2.59673093920655    1.23881154768531
C        10.28767237829410    0.94247678775363    1.03563409612995
C         7.98434518435675    1.77991035236489    1.29858476729513
H         6.99136297403423    1.90304607923156    0.88134603637327
C         6.62454170241540   -1.95577432594757    1.98845206190408
C        10.95063431329987   -1.19585507129935   -0.10259848961385
H        10.66795563975204   -1.71532319627226    0.81333250353858
H        11.78818829938860   -1.71975813300905   -0.55517356994416
H        10.11432810647979   -1.23510528779713   -0.79591614475903
C        11.34538992688100    0.25007465781247    0.20805550954140
H        12.27730131234059    0.23606258319959    0.78438150700540
C         4.51345061291548   -3.03940606946963    2.45538941676274
H         3.91514325013260   -3.63545223740683    3.12569400409320
C        13.07805906654869   -2.48215359084515    5.79421794114359
C        10.63041804328462    1.61879515537870    2.24023322355737
H        11.66379137970897    1.62879494201774    2.56955507990677
C        11.79238923132140   -2.89176371773177    6.14234268524495
H        11.61484426666404   -3.44582994780255    7.05012033071080
C         1.88984925169324   -3.65850430970302    1.54651778344982
H         0.97313327251740   -3.74011375522444    0.96583703468632
H         1.66479860503505   -3.19908105807044    2.51388734593126
H         2.30899170700867   -4.65676594445741    1.70285115689283
C         6.09376720459804   -1.49906362065728    0.77675787739675
H         6.71672712074743   -0.90459673731423    0.12648425172372
C        13.25722748475722   -1.75221688886219    4.61303569279901
H        14.25598127529069   -1.43696613364245    4.35738282832805
C        10.71943388801268   -2.58838814730707    5.32558774323439
H         9.72595420407672   -2.89283337060472    5.62096989233179
C         4.80841011402065   -1.81321228272281    0.40828765691372
H         4.39673223131846   -1.47233375298107   -0.52799086980552
C        12.18890827120618   -1.45855787246080    3.80120055062255
H        12.33511316679966   -0.90896650164487    2.88451238270092
C        10.89848773594403   -1.88429615140103    4.13416644012428
C         7.35563080355945    3.35779348145114    3.17295710985691
H         7.50558481785594    4.38147852453462    2.82601663526332
H         7.50202201014195    3.34839686771154    4.25203708326000
H         6.32867629496681    3.07501232136573    2.95222997926818
C         5.80500826554112   -2.71447636251202    2.82549486620698
H         6.17855570395115   -3.04392578267378    3.78363504265124
C        11.59881512947915    1.04283881509307   -1.07847593985675
H        11.88990511285257    2.06560630941334   -0.84915366503896
H        10.70853645718617    1.06890318731243   -1.70208219237248
H        12.39970585218009    0.57648333831046   -1.64556156274956
C        14.10003582491239   -3.48159221513801    7.69794327411597
H        15.11756867770279   -3.56468626409920    8.07472404351628
H        13.70441319014137   -4.48235447513851    7.50126097102205
H        13.47772299598145   -2.98109240652184    8.44606014195520
C         8.71592597476902    0.20387899802288    5.63780424695455
H         9.79446764274410    0.20524011576101    5.52322217652388
C         6.00719759263264    0.17618755790261    5.83017176731152
H         4.92970022276711    0.16408008666498    5.85660191209687
C         8.13611286657930    0.24985067863000    6.89196744911641
H         8.76231793662843    0.29673644917788    7.76806805528370
C         6.66275149793569    0.13305990598209    4.61398904514961
H         6.10659712262760    0.07953359217416    3.68446982917593
C         6.75292700687542    0.23344962944944    6.99875859744309
H         6.27107886059874    0.26489622497713    7.96276307758499

