62
CSD_code = COXQIP | q = 0 | S = 0 | Stoichiometry = C25H21MnN4O11 | MND = 6
Mn       11.63413440952140    1.55039134356374    3.06105053501670
O        11.48514410771128    1.19325314464733    5.27265581861265
O        10.67511586001093    3.06101604804161    3.33277261411165
N         9.84078119866205    0.68703485409966    2.64470529807853
O        13.26352404402835    2.20159975399437    3.37779732564650
O        11.82936465095284    2.25527169408819    1.14255189094132
N        12.56527875804825   -0.19858412315634    2.63491816142591
C         9.87262258350829    3.59769332220520    2.48950592056946
C         9.84152808935590    4.99275465675980    2.25474931540673
H        10.57145952900638    5.60680863133377    2.75878469576125
C         8.95003097378947    5.53565840043037    1.37133766784777
H         8.94854611095587    6.59288931770989    1.15303751205414
C         8.01482929010371    4.71671780182888    0.72369455167594
C         7.97983428490243    3.35228186561080    0.96973302753845
H         7.23592445092617    2.75103303093936    0.46698347628206
C         8.90738954413482    2.77028901247464    1.82251447520298
N         7.10430160770998    5.28733768407838   -0.21109563511149
O         7.13542344853136    6.49256589657944   -0.37754996815714
O         6.34597775653187    4.53552207744949   -0.79817758972474
C         8.89920519295231    1.35576509020258    2.07357530778085
H         7.99138052813029    0.83228204011740    1.76329787164463
C         9.57230014012003   -0.71472915431880    2.90950036647372
H         9.61710302632903   -0.86084440983864    3.99663373819151
H         8.56587121209622   -0.98029726240770    2.56066088334939
C        10.59466260790064   -1.62185236385130    2.22891313509123
H        10.67528895354418   -1.33245725110637    1.17913931435009
H        10.25695738146843   -2.65600051374064    2.30141678171719
C        11.97142989408979   -1.50073371282815    2.87664472423952
H        12.62319967905397   -2.29336865028059    2.48732634595578
H        11.87781701782283   -1.62507590589523    3.96364680938362
C        13.71754645546260   -0.18643573232238    2.05988187606145
H        14.15214321670738   -1.12930793569575    1.72078326328501
C        14.52240731609290    0.97931962697691    1.82692119210293
C        15.57279111071857    0.95118638677124    0.92079180072915
H        15.80750212257698    0.05220852535623    0.37150414287877
C        16.23221083165209    2.12785363795766    0.60206198730025
C        15.93740291800253    3.32817181610178    1.26054299376341
H        16.46858228826597    4.22635494053375    0.98131571328801
C        14.98526247859398    3.35023262125737    2.24303950987241
H        14.74513290387868    4.26106090246744    2.76915012258426
C        14.20898529059914    2.20137578576655    2.50722527690742
N        17.08759856169283    2.14953117246970   -0.53048028372946
O        17.72180728146306    1.15882651743871   -0.81550436672502
O        17.09869528110218    3.19162984044074   -1.17877021382887
C        11.44041634662843    1.63626654644083    0.09753543041835
O        11.13642035130595    0.45345283936507    0.04385271725111
C        11.20874261341878    2.57067738149207   -1.07230746859696
C         9.89655864419817    2.71607076900178   -1.50159791550944
H         9.14135270556779    2.05879476219637   -1.09947342605113
C         9.56065422773508    3.67970735304807   -2.43693282506293
H         8.53356169335921    3.78355213871052   -2.75447776038622
C        10.54029902526140    4.51070368449549   -2.95567002452313
H        10.27917912873400    5.27468231415004   -3.67229040994359
C        11.85824526241403    4.34256944201202   -2.57389371690836
H        12.63785398881482    4.95242296710618   -3.00386424320216
C        12.20400305651306    3.37068239668487   -1.63793711469538
C        13.63207638671626    3.08964253211421   -1.36258163130832
O        14.43254481607676    4.13696674464858   -1.55155934577297
O        14.04600458015193    1.99552951549336   -1.05555003579473
H        15.38384071839149    3.89298247471527   -1.46920915565253
H        10.89014271352749    1.88723432587393    5.58382702228152
H        12.36050935247160    1.41753138821822    5.61324251761719

