78
CSD_code = COXQEN | q = 1 | S = 0 | Stoichiometry = C36H33N6O2Ru(1+) | MND = 6
Ru       -2.33730914742527    9.89166392261164    2.68498027307615
O        -9.13014303924263   11.86871046053056    4.00303811018478
O         0.89205217899408    3.79914231023247    4.06037999812569
N        -4.07828438496944    9.58916509904707    3.78092595709927
N        -2.37167175634804    8.27465798264972    3.99125606817418
N        -0.55933700797417    9.56065255672038    1.88083807124514
N        -2.82658157193093    8.47156342083768    1.38329395296193
N        -1.79280804046233   11.24569534361383    4.00992360842215
N        -2.67750547636481   11.54190394059302    1.63468547961627
C        -3.63788822038222    8.47104817380214    4.33955806767756
C        -4.38320523893468    7.64682436535103    5.34661459543337
H        -4.99764649691695    6.88402032272659    4.87133636562011
H        -5.03731539520856    8.29127707946809    5.93141501008216
H        -3.67350634592319    7.14898399969141    6.00462828949842
C        -5.34965459467811   10.13857740239373    3.87626901383171
C        -6.52311588962876    9.37590699964802    3.85204392151676
H        -6.46943406479694    8.30119391106121    3.77473702375129
C        -7.75529409890460    9.98664859446369    3.89671131342768
H        -8.66187015337979    9.40311009855716    3.88012836007466
C        -7.86752251638922   11.37789871206964    3.95933803430528
C        -6.70498187830203   12.14470380012881    3.95993323677837
H        -6.74976869186835   13.22162724122754    3.99710631808002
C        -5.46996340870269   11.52765340638482    3.91533400877911
H        -4.57063886983579   12.12989403929588    3.91832697314834
C        -9.31662914119821   13.26235585497415    4.07998692040859
H       -10.39391442341353   13.41234394086183    4.11984206811808
H        -8.91364167966973   13.77083570938981    3.19810589914136
H        -8.86019210192857   13.67944442552803    4.98316500000520
C        -1.62730050410365    7.11182346412183    4.08155802711697
C        -2.17480055502110    5.83448506362130    3.95611888072064
H        -3.24030113141565    5.71527979392908    3.83102838549438
C        -1.37061189685086    4.70953577481710    3.95500717888101
H        -1.83591067746497    3.74148682090420    3.85771516675948
C         0.01077144995395    4.83082891592831    4.06818843837182
C         0.56719083364694    6.10839611264900    4.18234185201954
H         1.63870679747019    6.19337721971486    4.26826338468718
C        -0.23456336073661    7.22396621477908    4.18947087076183
H         0.20765014482626    8.20721924777545    4.28044248267926
C         0.39630785746982    2.48158735011160    4.00177870629923
H         1.27166402443685    1.83649171083872    4.04945738625743
H        -0.13931348002633    2.29444758312709    3.06538416793370
H        -0.26090302930693    2.26192641978092    4.84849781133776
C         0.56706401075795   10.24941262913031    2.08707019223485
H         0.46124872382565   11.21126852076396    2.57683288559927
C         1.81209430584031    9.79139092933515    1.70916956046429
H         2.68855705905282   10.38689089808926    1.90589926833801
C         1.91210139216573    8.55395330973110    1.08135467676439
H         2.87119975240505    8.15989352681169    0.78729251762154
C         0.75275890689561    7.84550063742764    0.83481270458904
H         0.79755633694076    6.89030439285907    0.33940317704995
C        -0.47505301428940    8.36892550157685    1.23696035778709
C        -1.76498007235443    7.74049622995147    0.96874973660865
C        -1.93798854260221    6.51812729094235    0.32167776120624
H        -1.08263221643360    5.93721640768729    0.02036682599302
C        -3.21648637213802    6.04954655772464    0.08380616724952
H        -3.37046276245436    5.10040070857674   -0.40403767302317
C        -4.29778234670156    6.82945500880658    0.47692206392430
H        -5.31065471079551    6.50910137375387    0.29467450452864
C        -4.05593777392751    8.02842030797803    1.12005816529538
H        -4.87331154443392    8.66281372765327    1.44383324187642
C        -1.36808246823589   10.98387133507855    5.24839937425208
H        -1.29457816608748    9.93639861420811    5.51371384773495
C        -1.03701300396295   11.97026104463180    6.15522310853961
H        -0.70172998584464   11.70333953221067    7.14396784993082
C        -1.14652736252258   13.30315509534401    5.77199448101256
H        -0.89709421692676   14.09738334707733    6.45688258670202
C        -1.58688524662655   13.58772085301630    4.49414293948223
H        -1.68706734597422   14.61067158354955    4.17093273823601
C        -1.90718795450975   12.54261631252168    3.62722921772607
C        -2.41245777873144   12.71104270197202    2.27022300133210
C        -2.63277084569731   13.94191266257607    1.65193367198475
H        -2.40961851252537   14.85791418581145    2.17354921592630
C        -3.14161765991121   13.98015782060084    0.36900114810064
H        -3.31956837523704   14.92174646858190   -0.12477094450826
C        -3.42046726932881   12.77621273769482   -0.27008517578012
H        -3.82111834615804   12.75894561749658   -1.27031814422465
C        -3.17246708747987   11.59350693464829    0.39549806523987
H        -3.37295452310048   10.64127038821195   -0.08111779369561

