60
CSD_code = COXRAI | q = 0 | S = 0 | Stoichiometry = C30H21BrN2O4PRe | MND = 6
Re        0.92160232066728    0.54606796184193    3.26112945255143
Br        0.49415225131651   -1.71801920496408    4.48810605232104
P        -1.51990130518806    0.82290206775984    3.58194606098790
C         1.19220126305627    1.36171296573303    5.03720592828557
C         0.41773233112964   -0.43497187021019    1.62187295457479
C         1.24823977191783    2.19644830196632    2.25961863883863
C         2.80687612969288   -0.00985052226463    3.14584699515839
O         1.26282397679795    1.77487039846064    6.09473248062945
O         0.03389065006369   -1.06032829222305    0.75307405542424
O         1.52399516298767    3.10744222061089    1.62816345099162
O         3.87233953694612   -0.40938112190445    3.11592756163212
N        -2.30942832678074    1.81665041629823    2.42849332186711
N        -3.09784799078994    1.14834869593187    1.54815070001906
C        -3.27453452488030   -0.08436086992265    1.83012325778495
C        -2.58779343639135   -0.61850746846500    3.07800269885732
C        -3.55859909043550   -0.98297611671973    4.16983431873541
C        -3.25580300717957   -2.00178978475597    5.06435854130549
C        -4.12215209688844   -2.29271461280464    6.10264546078205
C        -5.29492960109550   -1.57329470437179    6.25509428986885
C        -5.60453324185137   -0.56393918146196    5.35982219762453
C        -4.74009052454509   -0.26704721398902    4.32268267110236
C        -4.11297365877962   -0.93357018099446    1.00656945811838
C        -4.34073614350581   -2.27167973618151    1.33216646195710
C        -5.13966233906578   -3.05731458707928    0.52313961574617
C        -5.72056109967202   -2.52724989396782   -0.61681766684056
C        -5.50053985059482   -1.19853162599018   -0.94765507089289
C        -4.70496772028830   -0.40721826938629   -0.14583787030538
C        -1.89811946730160    3.11492088995966    2.13120871508771
C        -2.26421795705779    3.72821522540994    0.93621969027754
C        -1.84833645515984    5.01907105550593    0.67654844588779
C        -1.07117171476725    5.70809114017011    1.59434252247598
C        -0.71260256961799    5.09986885504966    2.78510651399420
C        -1.12255723670346    3.80848034674728    3.05708636567054
C        -2.20215666877940    1.31739186013252    5.19209776537795
C        -3.14998259074617    2.32997014393945    5.29780068683099
C        -3.69241515317525    2.63049690606738    6.53301522808032
C        -3.29965359273347    1.92476005837386    7.65852592075967
C        -2.35496540931446    0.91773784828089    7.55292864792185
C        -1.80179605745054    0.61313393949126    6.32359391003038
H        -2.33589086246134   -2.55822076447686    4.95669395778233
H        -3.87496315017813   -3.08268980986000    6.79542589565422
H        -5.96770772133736   -1.79877138884037    7.06896400423307
H        -6.51946152404432   -0.00101267761767    5.47022907127390
H        -4.98719397212035    0.52123256277913    3.62489040468878
H        -3.90331792717253   -2.70177825621741    2.22000386907224
H        -5.30891098439295   -4.09116994026704    0.78523005037822
H        -6.34257386274504   -3.14651242425075   -1.24568246206790
H        -5.95190273295167   -0.78144099632340   -1.83576717560406
H        -4.52456059915149    0.62724618021924   -0.39173892152616
H        -2.86564716807100    3.17939552854389    0.22937589858085
H        -2.12957785782377    5.48993474438919   -0.25341987308332
H        -0.74580760677960    6.71473169012953    1.38235751364382
H        -0.10867069551749    5.62902270497534    3.50679189135232
H        -0.85156414047302    3.33506665181453    3.99522108932450
H        -3.46040118133729    2.88064222969319    4.42117165567404
H        -4.42702126547554    3.41777831979601    6.61519188612267
H        -3.73081968115922    2.16127570150786    8.61971693984537
H        -2.04801656168840    0.36453417172161    8.42738118899910
H        -1.07343822015438   -0.18155461950138    6.24489327204434
H        -1.95667684880513   -1.48454564829041    2.84489941407966

