33
CSD_code = COXTIT | q = 0 | S = 0 | Stoichiometry = C10H17Cl2NOPtS | MND = 4
Pt        3.21342168408175    2.59319486576602    1.29324349016615
Cl        2.11706956031054    4.55731742077143    1.11000698425594
Cl        5.25672875873357    3.53489461671151    1.28159335831337
S         1.16352343005380    1.61570860417451    1.28413220611903
O         1.25197261002321    0.15453947597436    1.38278318088732
N         4.15526305451817    0.70788917355283    1.46799420942984
H         3.40012749778274    0.02923501841307    1.33021369308517
H         4.84647245128329    0.58682119487153    0.72739425386812
C         6.50542777193368   -1.33262580967944    3.21562378456127
H         7.24269834681821   -0.55313412463018    3.34139007347999
C         6.87126868180633   -2.66016510319975    3.35583138591064
H         7.89432223853637   -2.91315946711239    3.59047457846698
C         5.92845051302126   -3.66015754935151    3.19272772676369
H         6.21264526589223   -4.69613265056987    3.30047210708713
C         4.61840561463829   -3.32748678463406    2.89150582464346
H         3.87866275664115   -4.10387065434229    2.76472849628432
C         4.25166082309838   -2.00086340199900    2.75412189267468
H         3.22306429109380   -1.75788567588184    2.52519411038336
C         5.19409229122429   -0.99080780976885    2.91508229446873
C         4.79412093617705    0.46104336208876    2.77393611815634
H         5.68311903165872    1.09854140774092    2.82256868285931
C         3.83027548399445    0.87332768199746    3.88581488218853
H         3.61735397103827    1.94357743359778    3.80363771041643
H         4.27839362552296    0.68362373719873    4.85723595667658
H         2.90304280892927    0.30951147360807    3.81255099204358
C         0.02607036043918    2.18636000192314    2.58118151358548
H         0.46018331260901    1.93959289444537    3.54400760136043
H        -0.92948223530135    1.68997106665703    2.46247563087578
H        -0.06035081774604    3.26122010657430    2.47268522549864
C         0.12957174125561    2.00801311449597   -0.15559910030167
H         0.63353548824598    1.63557857220165   -1.04096430373023
H         0.04433569050364    3.08763408809957   -0.19801158670338
H        -0.83604703881413    1.52939372030244   -0.04503297377064

