78
CSD_code = COYHUU | q = 0 | S = 0 | Stoichiometry = C35H36N2O4Zn | MND = 6
Zn        3.88044617075696    5.45786976310362    9.45109448704146
O         5.00476188465011    4.12404372400296    8.47268322779888
O         3.44829269156948    6.27519618937863    7.64362591564662
O         2.23865137734088    4.37490372451520    9.28943564914628
O         2.77850981252518    6.85076854897781   10.38451727558763
N         5.45576835619263    6.86967600460866    9.58283070779460
H         5.45101997327443    7.26159013955684    8.64699938292791
H         5.12983395118202    7.59922862003515   10.20916195155125
N         4.58695826631348    4.58451638749738   11.34935793448787
C         5.36211865664368    2.41874929665807    6.88665076780257
C         5.30254417329860    1.33557248303520    7.75661376641652
H         4.80990495491420    1.45742414620435    8.70977116764383
C         5.84133020389346    0.11412125534638    7.39688527013238
H         5.77831059745775   -0.72393398072393    8.07606846988833
C         6.46259497565739   -0.03454383892277    6.16818893610790
H         6.88823159115583   -0.98695532733897    5.88734093597053
C         6.53863124049690    1.04260830446093    5.30040688344584
H         7.02942284878869    0.93112752510414    4.34412680227952
C         5.98796936596472    2.26103849448177    5.65378292710728
H         6.05894664306864    3.10213281924193    4.97967550308614
C         4.77559522690042    3.73166149607535    7.29544623464972
C         4.00902539186252    4.39477797168209    6.33500300934272
H         3.83600616634385    3.89379820387360    5.39623864121330
C         3.33454171187584    5.59645405810432    6.58857558578744
C         2.38609611903541    6.09543317147902    5.55118099350153
C         2.58736972750273    5.90998155380303    4.18686958587202
H         3.48138937712618    5.41873997562183    3.83265407510772
C         1.65902072546826    6.37921079774793    3.27526480911351
H         1.82622833385637    6.23685742233225    2.21707722856495
C         0.51727557413898    7.03029837352759    3.71217765007591
H        -0.20939302098534    7.38690626341591    2.99652321143754
C         0.31534429997016    7.22978964737477    5.06791094407898
H        -0.57111428314808    7.74314267445794    5.41200942704782
C         1.24828964071458    6.77474484758452    5.97918937151222
H         1.11176385257290    6.92522124215781    7.03949935487520
C         0.14638533640573    4.08192496571850    8.25680389097434
C         0.66024127131594    3.26190673832489    7.25510865639237
H         1.73077693704122    3.22031042395546    7.11919916314661
C        -0.18505051897445    2.53031404520581    6.44350472086682
H         0.22488480147409    1.90865945819700    5.66072106177695
C        -1.55536827831165    2.59212502834404    6.63560071918958
H        -2.21859863443564    2.02007730414226    6.00303099073474
C        -2.07375886563215    3.38342374298354    7.64749999213345
H        -3.14160377544549    3.41999991415998    7.80975948658210
C        -1.23075956669988    4.12836086313278    8.45189336842921
H        -1.64459349838365    4.72917646504187    9.24827819524820
C         1.10749928967227    4.88629544487232    9.06473102255182
C         0.70710824999830    6.16482701903184    9.47047087783587
H        -0.29644940381603    6.48659690137845    9.24597593118155
C         1.58223704504276    7.08213934354342   10.05807669086964
C         1.05576704981164    8.44731288517850   10.35573269434562
C         0.17622476037650    9.10939748896583    9.50504097254227
H        -0.13818472212704    8.64259433583651    8.58363315191749
C        -0.27462121464022   10.37911645552347    9.81813596310457
H        -0.95199966539643   10.88876857878717    9.14798066202208
C         0.14005107843429   11.00033122515862   10.98453486094016
H        -0.21954226447863   11.98939968763609   11.22874093145258
C         1.02340446197007   10.35259799554612   11.83239050939536
H         1.35381873526506   10.83615151284689   12.74067052608178
C         1.48454825193058    9.08929421153575   11.51429746917438
H         2.17737826778881    8.57463367992169   12.16407391064321
C         6.79637456835058    6.43524117965238    9.94867602116810
H         7.51445402595609    7.26979770022791    9.91793285492513
H         7.11090118596449    5.68130118596435    9.22432812865366
C         6.80227207799601    5.82460526990393   11.34517618247031
H         7.83908265048947    5.62892559032228   11.62832227275476
H         6.39868315859696    6.54521224456115   12.05752098683159
C         6.04834556573545    4.49957943652193   11.42724429318910
H         6.37439243934422    3.87432661988657   10.59481049573023
H         6.32804848899362    3.99873925541335   12.37037353946371
C         4.04753904672029    5.27424940418733   12.51486787256793
H         4.39308504014090    4.80724148765962   13.44792480446818
H         2.96221088106170    5.23458496294771   12.47775331668748
H         4.33703259254940    6.32030726196029   12.50670238890101
C         4.07271135824910    3.21773121454547   11.35670122506517
H         4.37541279877518    2.68343532282763   12.26814517648558
H         4.45338341166966    2.69251655246012   10.48660160234113
H         2.98878900283699    3.23651761761554   11.29229433484271

