69
CSD_code = COYJUW | q = 0 | S = 0 | Stoichiometry = C24H32Cl2N6O4Zn | MND = 4
Zn        1.42545669748465   12.47144908001287   12.09499908915580
Cl       -0.08256812060164   13.61868287590344   10.95520045677060
Cl        2.95053391062050   12.84055435221357   13.63288171939429
O         2.79972214104148    5.81133683610052   10.68640903540499
O         5.40605678418738    9.18862553680689   12.37476690378979
O         2.54539821109866    8.02875127944395   14.88555283515662
O        -0.96912527902221    8.95337588510090   17.72265486046148
N         2.07329895885351   10.93433638397332   10.77497142852584
N         3.66322094827955    6.43630997970356   11.35111938305848
N         4.91135101305921    8.06031873283479   12.16424242745973
N         0.18766993734174   11.03714164845285   13.17819625233939
N         1.83387195079319    8.14316321506667   15.93041039092860
N         0.12703156652794    8.53416593762782   17.26730384624749
C         2.23077395882642    8.42272602563026    9.62315220903875
H         2.27052704374792    7.43256009502783    9.19712247992028
C         1.39747712199397    9.39410777286652    9.09687716591687
H         0.78936034273839    9.18673015526523    8.23096066167106
C         1.33576578184109   10.63353940345766    9.70996484976248
H         0.67606963736440   11.41443550369784    9.35912464379317
C         2.90637364508695   10.03138363592424   11.26613022187641
H         3.50518614655660   10.34020786187133   12.11129240335536
C         3.01139463706001    8.74308082670267   10.73623346826104
C         3.86130460551096    7.76130012814995   11.38940663297313
C         5.55059576775494    6.84009840286667   12.69988143248219
C         5.76641751218835    7.06053233807074   14.19424912577568
H         6.48044100708511    7.86962161096338   14.32708524306610
H         6.15620074264968    6.16178026656327   14.66296018153869
H         4.83414052823217    7.35897528842622   14.66483276805581
C         6.90414721233672    6.71766725957879   11.99423637753528
H         7.47402434666116    7.62384633165065   12.18911117570817
H         6.78476697491381    6.62237577525406   10.91753557421827
H         7.46013715565726    5.86518006945319   12.37221203402696
C         4.52790051202318    5.74175659181210   12.32827570913437
C         3.59693032620106    5.33817413377977   13.47696412341667
H         2.81221353738250    4.70152228681576   13.07329265509174
H         3.13163107688731    6.21544021066464   13.92262595328033
H         4.14128606136004    4.78433521550108   14.23578224257399
C         5.10058272378200    4.48538090071428   11.68020275738242
H         4.27380212033230    3.85112886673613   11.36885466070058
H         5.71359349296224    3.94123572632238   12.39251016051386
H         5.69354883313988    4.71488068323483   10.80035494571619
C         0.73791622593533   10.24496458125406   14.08575588683311
H         1.81682797283344   10.19362647591836   14.08768064168343
C        -1.13673784236878   11.14727090149133   13.13191004951330
H        -1.52606228020163   11.80600755002271   12.36822361270700
C        -1.96862718807400   10.47575380703177   14.01203846176627
H        -3.03773314275110   10.59913600950737   13.94785852590830
C        -1.40731351828709    9.66357731355849   14.97999301419411
H        -2.02292840969367    9.15407973283106   15.70440252623868
C        -0.01671754118927    9.53328484919374   15.01902434348440
C         0.63751837306799    8.73540425267009   16.04509581180203
C         0.98696228965386    7.61973409663029   18.04940691990080
C         0.29328957430847    6.25279447897763   17.99214657316204
H        -0.71213679601133    6.36096392038455   18.39390618718613
H         0.82793153181638    5.52007852326825   18.58866362781841
H         0.21365240878085    5.89479574913990   16.96784379471438
C         1.05589359950038    8.09334003276559   19.49460191875460
H         1.44610780065480    9.10325886497349   19.56927323242493
H         1.67864131921526    7.42300533131346   20.07995944151557
H         0.05004241695542    8.09437597063905   19.90760038617068
C         2.30867969887304    7.67923847616704   17.25199476706989
C         3.04596773275608    6.35150821944996   17.13152739022707
H         2.46470612440055    5.61870399813981   16.57999091864845
H         3.26422124228819    5.96387789195890   18.12246148982259
H         3.98445770120569    6.50584497338838   16.60728826148174
C         3.27761449659772    8.76159325552880   17.74392592739665
H         4.07418870967606    8.87812193203489   17.01166876712709
H         3.71779724134391    8.48092890867270   18.69606477908702
H         2.77622868675732    9.72131479281658   17.84485225790755

