73
CSD_code = COYLOS | q = 0 | S = 0 | Stoichiometry = C36H30Br2HgO2P2 | MND = 4
Hg        3.62499071499141   -5.90479371619291    1.27071229034452
Br        6.01535538835751   -5.64467184896633    1.18734132960715
Br        1.85276304139163   -7.49939461760848    1.59614125250064
O         2.72141760475327   -4.61873545607767   -0.36668704846203
P         2.38554280840012   -3.17240125882830   -0.29903288559140
C         2.03254819274521   -0.84153756977941   -3.64904867745160
H         2.26001747856893    0.16761633722078   -3.96028112462684
C         1.45672728261500   -3.43544081203085   -2.86169106409801
H         1.25061761723480   -4.44540873442683   -2.53593446413202
C         2.34032410301853   -1.25137051681505   -2.36410940460175
H         2.81601633358581   -0.57023310392460   -1.67143488963654
C         1.15215812907845   -3.02190930490103   -4.14549850345752
H         0.69275626525028   -3.70926766498644   -4.84025402235196
C         2.05218521174564   -2.55130600890106   -1.97216843892706
C         1.43836836286948   -1.72388232383261   -4.53728712119490
H         1.20215449212860   -1.39895380357375   -5.53979089940370
C         4.78644074242357   -0.39868537667464    1.56636850767915
H         4.70656821023781    0.40655170427050    2.28246614272025
C         3.76504251164188   -2.15665182287131    0.30215123206450
C         3.65754622118154   -1.11802650427314    1.21484964896863
H         2.70135390572264   -0.87696372090393    1.65553099860373
C         4.99880006249547   -2.47044728399841   -0.25849009978736
H         5.06523485646845   -3.28401066410195   -0.97013656324327
C         6.01552911451641   -0.71136442482203    1.00799255794879
H         6.89061990257046   -0.14291924624857    1.28641094117766
C         6.12484365687276   -1.75166050420690    0.09868113214719
H         7.08297146493137   -2.00771968282876   -0.32706666649037
C         0.21186018576345   -3.86679888684906    1.27195022121909
H         0.61742201234792   -4.86677466691285    1.22721932928359
C         0.86698560132121   -2.82887285657649    0.62511796295942
C         0.32693042326381   -1.54693774937092    0.63589536607238
H         0.81985243889775   -0.75134501356461    0.09395554532282
P         3.25375089733624   -3.96926611712794    4.07680527129622
C        -1.48518854829213   -2.33663082104871    1.99545500581331
H        -2.40085328438839   -2.14254430484696    2.53471181284439
O         3.06078842031689   -3.91352015671737    2.60079376412263
C        -0.84664178145817   -1.30398441597797    1.32500954880673
H        -1.26810510231637   -0.30888904388009    1.33474701069896
C        -0.96014699888047   -3.61760925731927    1.96357282320769
H        -1.46476446836485   -4.42568850847773    2.47151910888068
C         4.78681896492382   -3.15768958627740    4.59745194635117
C         3.34245521069485   -5.69095904414212    4.64683759284158
C         5.03764938062192   -2.88085980748428    5.93654000774130
H         4.29625071854271   -3.12070287200124    6.68492821913254
C         5.73345915245276   -2.85264521365539    3.62991256293089
H         5.52653098086070   -3.07650585236796    2.59485714956226
C         4.57626552452682   -6.33326660996139    4.68369248624038
H         5.48272035637901   -5.76999700663783    4.49803608901208
C         1.89254450661050   -3.17127694344154    4.96730976595094
C         1.17706274318817   -2.18870515818186    4.29869885658511
H         1.42870737306011   -1.97231895371413    3.27138783438455
C         2.17112689487461   -6.39927690641598    4.88995789942404
H         1.21684804588816   -5.89188746789408    4.83094673156256
C         6.93567096306656   -2.27707920075681    3.99982863818955
H         7.67611417748406   -2.05864239152025    3.24588837101433
C         1.58511733678642   -3.48245708007506    6.28658199290508
H         2.13661223580888   -4.25670181411190    6.80173002344054
C         0.15114655143632   -1.51995803357205    4.94090551090291
H        -0.40759308490994   -0.75908122927133    4.41663240863391
C         7.18659186025965   -2.00012332252504    5.33287626809430
H         8.12604096664859   -1.55420722337681    5.62416501724127
C        -0.15739472399965   -1.83216085802085    6.25457410922782
H        -0.95971898208406   -1.31373792746712    6.75822669120866
C         6.23713643096034   -2.29849981505404    6.29929592379315
H         6.43660318033938   -2.08204623226126    7.33855828818509
C         4.63202190487471   -7.68697483943969    4.96859303615041
H         5.58714809473850   -8.19040396139530    4.98825236141396
C         2.23661496736688   -7.74992134506246    5.18069803077297
H         1.32823456807424   -8.30579071625238    5.35416376051092
C         0.55786364169884   -2.81236418331977    6.92518202248394
H         0.31222726068697   -3.05572694691017    7.94835735807970
C         3.46438362828032   -8.39169076374315    5.21684906432406
H         3.51035569859946   -9.44949096473495    5.42709705074265

