85
CSD_code = COYMAF | q = 0 | S = 0 | Stoichiometry = C36H44N4Ni | MND = 4
Ni        6.20911717614020   -1.56261276356384    7.40669133673486
N         7.48460697487057   -0.29486253399610    7.03029137839478
N         7.59025017874120   -2.62514139513855    7.98902127203159
N         5.12859225165184   -3.09617313992884    7.89941901548032
N         4.99967781895055   -0.26514156875784    6.59389356517910
C         7.07366115736022    0.81836981481749    6.37848257816404
C         8.15673689618793    1.75781317716072    6.33133784519469
C         9.23364064095780    1.13711957977854    6.92532187711476
C         8.79806738613120   -0.15954444553064    7.35133664061127
C         9.52104327611651   -1.18253386646333    7.95396358247777
H        10.56681824587598   -1.04365211109709    8.17584435151300
C         8.90669065913014   -2.39418122436530    8.23999374374587
C         9.47007764817396   -3.58455714044016    8.80451513650304
C         8.46500870482132   -4.52248457186565    8.87574634758773
C         7.29045883371427   -3.90295353692856    8.32615132657756
C         5.91433637847024   -4.19841362794920    8.13375266655868
C         5.10389343855906   -5.37091158580001    8.22715505317872
C         3.80308956003347   -4.93252263526522    8.19117596254893
C         3.83530910645229   -3.50348484960293    8.00907572940582
C         2.64380923152995   -2.77640425830749    8.11441517882232
H         1.89226994298881   -3.35762955252480    8.63988547142766
C         2.12758131047267   -1.58252117955808    7.65837712123639
H         1.09211753853064   -1.44909350758392    7.96222857784640
C         2.51923339695021   -0.60326076741752    6.75327042485293
H         1.66358681653677   -0.03459506127635    6.40596827990316
C         3.69744943268703   -0.11053339566433    6.20665524673225
C         3.62584511401201    0.93628678795453    5.21060995849415
C         4.88143195379691    1.46766724618080    5.08485625816275
C         5.71063408979253    0.73526226037012    5.99034412814563
C         8.12257667674330    3.18256729877682    5.88660341775437
H         9.13397390747091    3.59068791313222    5.92602176687197
H         7.78211482328912    3.26214225821877    4.85482377476148
C         7.22082520646693    4.01013919080442    6.80598940676864
H         7.17273238219374    5.04308350032974    6.46658727209306
H         7.61079209336384    3.99856388516269    7.82154738029132
H         6.21393852519625    3.59976088370373    6.83093901980070
C        10.60360303831366    1.67748028780316    7.16722138790059
H        11.33244016344783    0.86815354584085    7.08475208169198
H        10.85297898758355    2.42441860959951    6.41090795497516
C        10.70604472026058    2.30835853796004    8.55825065782720
H        11.71512157200071    2.67270443135624    8.73859609067057
H        10.45596132582187    1.57700769904759    9.32346622159171
H        10.01506536509689    3.14330143737464    8.64628039612017
C        10.90211976858720   -3.71749888105208    9.20096363895095
H        11.22163408676348   -2.80815360829887    9.71631751154130
H        11.02441666896514   -4.55402433444496    9.89097057496879
C        11.79629354943152   -3.94128966493814    7.97804878480060
H        12.83775924391168   -4.02784739779856    8.28048773617233
H        11.70268784929641   -3.11304135217914    7.27979789131041
H        11.50937537678896   -4.85263498820576    7.45874979642710
C         8.61570455813111   -5.87346887480392    9.49598175714731
H         9.33120168451960   -5.79899459385875   10.31932079602612
H         7.66657357837203   -6.18531459492862    9.93249652334994
C         9.12780234254454   -6.91686471575496    8.49975381279308
H         9.14405203629984   -7.90461864197762    8.95619192050418
H        10.13841049420197   -6.66788347752848    8.18580190766178
H         8.49878415201563   -6.95090818947105    7.61421279985745
C         5.53610660737498   -6.79805435325255    8.16634027716803
H         6.47607955660265   -6.94930559363938    8.68309196051516
H         4.78680065822529   -7.43135085298069    8.64575924704501
C         5.70055227122349   -7.22941541167886    6.70588851989402
H         6.04828918873282   -8.25897507630968    6.65004067071905
H         6.42072045591803   -6.58780345263306    6.20213696636674
H         4.75369058851288   -7.15463624950588    6.17674542378849
C         2.56366205464611   -5.76427599310947    8.23410534632455
H         2.81870854231198   -6.78448444591290    8.52462873031261
H         1.87543926525560   -5.37465098693601    8.99065846725101
C         1.85227994950597   -5.79499644030665    6.87934639210482
H         0.95729658373090   -6.41133698537375    6.93475295663578
H         2.50849145054565   -6.20748801372651    6.11642079697044
H         1.56781111275958   -4.79074919040743    6.57386799030891
C         2.40303723937404    1.36054054616695    4.46267743045744
H         2.68254811147592    1.62501126151195    3.44017229272837
H         1.69357725423912    0.53385137702624    4.39618255154804
C         1.73109076441956    2.56812986768347    5.12285469066710
H         0.84775143474171    2.86524520112988    4.56140987261380
H         2.41879238304083    3.40986423304530    5.15986197110052
H         1.43179245466743    2.33320290873168    6.14195181531104
C         5.30695637095764    2.49147817320818    4.08572403515080
H         4.42538317912517    2.88077303319356    3.57410026884769
H         5.78791630767384    3.33379831108173    4.58043063678768
C         6.25161290447928    1.87577131258351    3.05099528956091
H         6.58947600330712    2.63131354705573    2.34420439505808
H         5.73829482253111    1.09164376672907    2.49835387384743
H         7.11902314788024    1.43286319546945    3.53453479568139

