25
CSD_code = COYRAK | q = 0 | S = 0 | Stoichiometry = C16Cl2HgN4OS | MND = 4
Hg        0.27271082462855    5.59059609003401    3.74149425709654
Cl        0.20369937089657    7.77701936635039    4.40903051260350
Cl       -0.38273864507976    3.44865806035477    3.34578591774097
N        -2.54018757384851    5.94456153118682    4.27576219550137
N        -3.52147880746962    7.94091252551522   -0.07539725775620
N        -1.26939673886924    6.45990436266380    1.61133962337885
N        -0.66510932700127    6.60798285217205    0.52689189894378
C        -3.32348589721717    5.88898530349015    5.26299230802094
C        -4.56152238037500    6.25114206286320    5.57946264038307
C        -5.00217949048238    6.82465746310615    4.47104829650962
C        -4.42285733318411    7.03942665091609    3.26452392823435
C        -3.05820149588852    6.53334924904523    3.20821835388971
C        -2.48378819541889    6.79466839071587    1.92111063952894
C        -4.62226318655005    8.48026751518398   -0.37316184084974
C        -5.81928489526969    8.76399214441592    0.11396739537440
C        -5.70306099091121    8.25556296520459    1.33631247845019
C        -4.70316449924248    7.62127160514220    1.99335068443285
C        -3.51265166523792    7.47536232423857    1.15797007552032
C         0.68896853311697    6.22115603827955    0.49068790636500
O         1.34674654026252    5.94153422840343    1.48433973067741
C         1.14912357410440    6.24909660886288   -0.85022121166905
C         0.51019890838161    6.56381807132382   -2.01745219818266
C         0.68649266912800    6.67867568266649   -3.36102147985304
C         1.89960934245259    6.31006290187079   -2.94271651552903
S         2.75592135900595    5.86983600610005   -1.49971833884698

