71
CSD_code = COZHAA | q = 0 | S = 0 | Stoichiometry = C34H32N2O2Pd | MND = 4
Pd       16.01104261208345   -0.00077254373359    3.96716906634464
O        14.74166783420735    0.70295012618328    2.53506453543258
N        16.99883859157769   -0.92396237910207    2.50848597018678
C        16.43615069656709   -1.42224993863015    1.45760493551670
C        15.09272810545063   -1.16931387757793    1.05301077327992
C        14.33070127165860   -0.08672203632230    1.61006504954136
C        13.05119512728465    0.15211976859492    1.04063699030230
C        12.54703704824553   -0.62741608855392    0.03630782054794
C        13.29449601623159   -1.68527105276444   -0.49186241644116
C        14.54798970656014   -1.93024899540666    0.00295381226483
C        18.37078797535888   -1.04283093361270    2.75216996087513
C        19.02588707105895    0.09404879778912    3.23871329194339
C        20.37052448417295    0.04317248996512    3.53738354248127
C        21.09456547604170   -1.13323804961851    3.36425386193103
C        20.44066642773439   -2.25355545681307    2.86820736916711
C        19.09344318895389   -2.21688077429245    2.55967054726896
C        22.56250760803329   -1.17672545736683    3.66732553250677
C        23.37890377720691   -0.78259144266520    2.42970277110917
C        24.87142711473455   -0.85586679336003    2.74006634512529
C        25.42328506004425   -2.19561930904630    2.80254661923200
H        17.04109289595448   -2.02040866613496    0.77005030383929
H        12.48384302085011    0.97416509163445    1.45151543485452
H        11.56084920111791   -0.42402922502988   -0.35661766043630
H        12.88848173157384   -2.29282923912336   -1.28594683549772
H        15.14243993362902   -2.73659375149622   -0.40519731822484
H        18.44971971785053    1.01617870812440    3.37338056866745
H        20.86613415923813    0.92191133012705    3.92470015031079
H        20.99241415486582   -3.17274819502534    2.73466311537367
H        18.59190356834311   -3.10847506796559    2.21193594294476
H        22.86108414748989   -2.18403986893457    3.96457349406689
H        22.79403737645804   -0.49209996096258    4.48656634491300
H        23.14576396143353   -1.47104755740046    1.61653977108004
H        23.10366834400732    0.22803073142475    2.11935479503971
H        25.15230546260133   -0.13138937765863    3.51784215522018
H        25.44678311390297   -0.58413378683879    1.83003532350750
H        26.39627365349961   -2.17944956905255    3.32575148448183
O        17.28141283679296   -0.70300384628979    5.39908117297205
N        15.02413286860823    0.92420591182241    5.42532881634674
C        17.69239416779506    0.08690599527915    6.32387440951060
C        15.58688816533839    1.42248066563556    6.47621678361725
C        13.65215020460611    1.04294175395378    5.18168627332521
C        16.93033185632877    1.16953249404720    6.88083808831266
C        18.97183402171412   -0.15197191235400    6.89342393197242
H        14.98189513774810    2.02041460054614    7.16392666500549
C        12.99713160276029   -0.09402956756588    4.69524644360002
C        12.92937644041589    2.21692870360343    5.37408996655122
C        17.47502898524148    1.93044530836951    7.93094737773822
C        19.47597892556375    0.62760769042490    7.89771923129488
H        19.53917080366149   -0.97406997129023    6.48262790415130
C        11.65234145642989   -0.04342783866061    4.39695639021592
H        13.57342997714069   -1.01607544501744    4.56065250186590
C        11.58200497849007    2.25335210488049    5.06596963640221
H        13.43085059715887    3.10853616274796    5.72189199218134
C        18.72850859985789    1.68547294929925    8.42583048654404
H        16.88055639284569    2.73678299766139    8.33907656589674
H        20.46216145374202    0.42423823778207    8.29066698922515
C        10.92801472287181    1.13281329222680    4.57043054018209
H        11.15688934591222   -0.92217566848764    4.00948126797825
H        11.03026362612945    3.17257849121898    5.19925290482119
H        19.13450470260692    2.29305414242905    9.21990834337005
C         9.46017584698393    1.17638181251583    4.26680705569846
C         8.64453410661765    0.78241736652258    5.50497003370143
H         9.16187663662994    2.18359329896910    3.96878500767100
H         9.22889616660486    0.49140056604089    3.44781931877978
C         7.15237771487322    0.85620544883038    5.19336012522530
H         8.87735127410353    1.47138636518012    6.31762531013027
H         8.91985839284784   -0.22788584495219    5.81613877813580
C         6.59942430027659    2.19538842558300    5.13008465405041
H         6.87089792635565    0.13141120038250    4.41657912205062
H         6.57722790292518    0.58493907821562    6.10345653915468
H         5.62598822599530    2.17915738109467    4.60762592356645

