51
CSD_code = COZPOY | q = 0 | S = 0 | Stoichiometry = C24H21N2O3Rh | MND = 6
Rh        0.33115189872470    7.79803738952167    7.77052176539183
C        -1.49615540143952    6.56829207675115    9.68354437431993
H        -0.57764138620997    6.29942546405501   10.18988947505057
C        -2.72595542310289    6.29605444047369   10.25439448822852
H        -2.77965764134770    5.81699419454809   11.21864399316026
C        -3.87545178412105    6.65911514227589    9.56655172027969
H        -4.85187898966762    6.47322079479268    9.98838370847870
C        -3.74830669307013    7.26023843125505    8.32921608380022
H        -4.62387926074384    7.55097236877441    7.77149361923253
C        -2.47930978341575    7.50100888547865    7.80532578826181
C        -2.19175212828817    8.10612216441104    6.51318539194826
C        -3.15566615670620    8.47970567689976    5.57867282163204
H        -4.20608314156902    8.34285740762438    5.79024546780989
C        -2.76853523033074    9.02832329164137    4.37263666152879
H        -3.51348288303756    9.31793074133992    3.64604120203005
C        -1.42197423760985    9.20613826122527    4.09570250634465
H        -1.12097687399140    9.63347545725274    3.14952935777561
C        -0.45740425898384    8.84171970917898    5.02222647279197
H         0.58506041081304    8.99195780606595    4.77349878459224
C        -0.82164095248483    8.28887612160089    6.24194085471734
C         2.46486347922466    9.69050169797600    7.14093349204947
H         1.82220664730285   10.36985564143350    7.68786214727407
C         3.67836230354040   10.10891400302556    6.62716616678147
H         4.00619750099064   11.12567740948161    6.77201847423170
C         4.45480230511766    9.19602350274317    5.92554555583108
H         5.40896764341398    9.48765575085348    5.51301411051024
C         3.98193674651764    7.90896007669135    5.75848801541935
H         4.56144080301267    7.18242839016740    5.21229117825770
C         2.74661767971081    7.54896533886887    6.29641847268544
C         2.11322372168170    6.24452280222441    6.18173655078409
C         2.66875729842789    5.15081559826765    5.51912002146513
H         3.64045504775972    5.22621746014351    5.05280761401210
C         1.97475860978971    3.95985457758402    5.45959501022118
H         2.40089618359148    3.11020565526070    4.94641207196942
C         0.72833258798275    3.85692015708221    6.05914022883513
H         0.18524597187257    2.92364481805194    6.00735888174246
C         0.17329300575465    4.93978415393226    6.72163720826125
H        -0.80260269337837    4.82889417478928    7.17636746594413
C         0.84933553364561    6.15121438572111    6.80087601292980
C        -0.15055822850681    9.90787306637353   10.05677676083572
C        -0.78446408378398   11.20845992273889   10.54384285677194
H        -1.47169947423589   11.59153395940373    9.79450034068146
H         0.00490871752078   11.93895316250993   10.71403610781794
H        -1.29983678076064   11.03374368248645   11.48448709486696
N        -1.37224377453767    7.16178355576004    8.50091687865741
N         2.01201690337491    8.44843593850794    6.99110054561589
O        -0.16123689287298    9.71611172765141    8.81639314514515
O         0.35574195606074    9.14378222780154   10.90091383895635
O         1.53024979539406    7.19554586845405    9.71087440376239
H         2.47076730398670    7.38719270847828    9.72992935244536
H         1.08610409898318    7.92946276036689   10.27059545785336

