93
CSD_code = COZVIX | q = 0 | S = 0 | Stoichiometry = C38H36FeN14O2S2 | MND = 6
Fe        2.09286470023817    4.93265300712147    6.31668525932540
S        -1.09576874501762    5.81430050617876    3.15456009553730
O         0.67399696162689    3.74059222836348    7.65599454622937
N         2.31791011536072    3.35822648638944    5.18546922617127
C         2.51014906352922    2.14850694406200    5.71894387392208
H         2.66671858483803    2.12624332458311    6.78609526000081
N         1.79087168777876    3.78082793118253    1.12924538698583
C         2.52126480364467    0.99207831556703    4.96031261867181
H         2.68512060285901    0.04016124664959    5.44041691644412
N         1.40552775992759    3.67869603392963   -0.12930142615624
C         2.31055218553811    1.06677274067902    3.59290207544162
H         2.30048083377151    0.17663743274968    2.98361819027476
N        -0.06512458948427    6.95311673588176   -0.97800831354724
C         2.11130988490584    2.32476237014920    3.02551859259444
N         0.97997770328520    7.76567034594860   -1.02139431146914
C         2.14373951351241    3.43166931010112    3.87029722130746
H         1.96644156863704    4.40725558295034    3.44241596698674
N         1.98263777608898   12.02999729882221   -3.02136232037183
C         1.81273165289096    2.54550508149523    1.62332689981890
N         0.50017721670402    5.37670085179129    5.36384381562166
C         1.43163585493293    1.62368564147398    0.62576822887910
H         1.34621167284686    0.56040392223547    0.70903280483198
C         1.16965993206160    2.39719054597435   -0.47907958560643
H         0.84568594171661    2.12912216744097   -1.46441946700782
C         1.19416253726866    4.86749341561208   -0.90301554769661
H         0.98835800951737    4.58725341243807   -1.93845792793194
H         2.09149687396232    5.49247451867199   -0.86697700539744
C         0.03218481377213    5.68624465273824   -0.31378682873261
H        -0.91636784240821    5.15671781069955   -0.42405619642361
H         0.22422387210049    5.83803663326353    0.75467139595107
H         0.58391203849336    4.07477540329184    8.55497831268642
C        -1.13197107927469    7.47431317239318   -1.61771489489676
H        -2.06675208586650    6.95380828308944   -1.67342176641583
C        -0.75099017112145    8.70035791507151   -2.10332211026353
H        -1.35073427084286    9.39438814178103   -2.65393579062783
C         0.59466466500522    8.84310596098198   -1.70077253241306
C         1.50360034632117    9.94984476148988   -1.93547602106314
C         2.74945077664989    9.99381680288288   -1.30647213374449
H         3.02764131721267    9.19170853007484   -0.64004381881681
C         3.58994812343683   11.06318060846531   -1.55023390242174
H         4.55878539818544   11.12838815129824   -1.07829050586655
C         3.15811662587231   12.05849812020410   -2.41579351509968
H         3.77625258889633   12.91898067305798   -2.63707685833471
C         1.18222311316706   11.00752793015983   -2.78835084473541
H         0.23739743452328   11.03231262715146   -3.31482336988653
C        -0.15796447782370    5.56544520446777    4.40872048946208
H        -0.15256216752270    3.93377724190669    7.19613136543489
S         5.28350697880160    4.06423497258413    9.48054502949227
O         3.51732478985821    6.12406880822946    4.98116077706532
N         1.86751169308616    6.50854240298640    7.44693695312979
C         1.67415257597326    7.71747270177715    6.91204036736950
H         1.51753244626162    7.73830561192511    5.84486821264865
N         2.39266700278503    6.09063989295471   11.50356618637076
C         1.66212625994952    8.87475362945574    7.66938223342289
H         1.49733957637019    9.82594603526824    7.18820920185260
N         2.78119617207405    6.19352955302084   12.76112984142369
C         1.87303401541031    8.80190882964895    9.03687912245379
H         1.88213917829106    9.69269377932720    9.64523122451617
N         4.25264803840972    2.91905810607550   13.60739597336289
C         2.07354816353032    7.54476017544541    9.60562077224666
N         3.20728239415678    2.10680062407460   13.65001477752286
C         2.04203968594664    6.43695982084492    8.76210225282494
H         2.22085938293614    5.46222848179717    9.19122802702887
N         2.20259265632963   -2.15791739144315   15.64775730718595
C         2.37337742536669    7.32529199233742   11.00773228715327
N         3.68534623079148    4.48870267101156    7.27025114570922
C         2.75950704836803    8.24745481237610   12.00297176296543
H         2.84807044298344    9.31029564118043   11.91758399983279
C         3.02191493601816    7.47480487606468   13.10831545960500
H         3.34920029990136    7.74338588944573   14.09240511644518
C         2.99313530201572    5.00505086490893   13.53516099157533
H         3.19879491484763    5.28549270826672   14.57057119093158
H         2.09614046574802    4.37959478177011   13.49906063196176
C         4.15556819565962    4.18715768516206   12.94557041450683
H         5.10403909850857    4.71651581299431   13.05734975293163
H         3.96421683014980    4.03730315559198   11.87668990284831
H         3.62441825178658    5.77591457667064    4.08977866875580
C         5.31980460684529    2.39626413844155   14.24527795254527
H         6.25479467799513    2.91635361386990   14.30118765422341
C         4.93875414662244    1.16944915662644   14.72885696287923
H         5.53872354818509    0.47415488172206   15.27762684336159
C         3.59273231745210    1.02796991258963   14.32711882341894
C         2.68314653827996   -0.07828950670997   14.56151454685982
C         1.43655144975347   -0.12056415894648   13.93390021725016
H         1.15861361526938    0.68198997710265   13.26788193901608
C         0.59476485188923   -1.18866402457575   14.17880050964725
H        -0.37472181175630   -1.25246918482580   13.70802912314875
C         1.02610879741246   -2.18445934687161   15.04405838187107
H         0.40688080381620   -3.04385455803848   15.26643595547585
C         3.00425524431078   -1.13670302804905   15.41360592362967
H         3.94979099753871   -1.16296102326094   15.93866363254953
C         4.34482304896998    4.30502570577737    8.22543409777638
H         4.33709759340812    5.94247992040353    5.45723630361170

