37
CSD_code = CPAINC | q = 0 | S = 0 | Stoichiometry = C17H15CrIN2O | MND = 8
Cr        2.27275758787565    8.91904706113955    3.02214918006715
I         2.18684344718810   11.39734148675000    3.91232282337177
N         2.90230514076677    9.15878262525715    1.30298121250993
C         4.25616297540035    9.22971827874503    1.00477964721485
C         4.76681716968612    8.58122935462877   -0.12963831860004
C         6.12018205549618    8.59657425386774   -0.39654011437434
C         6.99449556367181    9.26918537126515    0.44331173530213
C         6.49829939021589    9.94038928014798    1.54871622870885
C         5.14631782030916    9.92462137270016    1.83199660582560
C         2.06483299042230    9.20487990850839    0.17687845867635
C         1.24599506810546    8.12480946015189   -0.14783581384493
C         0.39506902493741    8.20528729940545   -1.23371437227008
C         0.35381381321910    9.35466199589953   -2.00575009126168
C         1.17698685928256   10.42449630342471   -1.69514514337656
C         2.03841464982381   10.35127284734131   -0.61735240592988
C         2.01789172311375    7.34543523328038    4.67413637673811
C         2.60434906961912    6.76887987718489    3.51734596815620
C         3.92512205849632    7.27800928842855    3.40161839570486
C         4.12081261183169    8.20918364454946    4.42222385450515
C         2.94413319225472    8.24767141501052    5.21444577770527
N         0.70632998962513    8.87014595583373    2.56273685898205
O        -0.42785958348297    8.73128469431765    2.31669551284705
H         4.08740596322665    8.05108274357479   -0.78207528450601
H         6.49547882606740    8.07989680621548   -1.26724694797775
H         8.05218655682722    9.28031615790566    0.22979112241651
H         7.16787169113585   10.48975173847222    2.19353023612107
H         4.77352389395125   10.49925136708304    2.66686336357168
H         1.29003526516839    7.22782203896023    0.45576105569150
H        -0.23944359806595    7.36627802883473   -1.47594570501321
H        -0.31883339731940    9.41580218410938   -2.84732413564591
H         1.14790654043437   11.32300620783414   -2.29249639512265
H         2.67620998877782   11.18487709055708   -0.35812004770436
H         1.07628415082471    7.05195611454818    5.11878574701031
H         2.21221979361644    5.91727501672856    2.97847487800652
H         4.66699598217437    6.94393875708917    2.68943845488558
H         5.04119408415152    8.72615858618850    4.64731415039163
H         2.82909164117144    8.79828015406248    6.13778713121758

