39
CSD_code = CPARCR | q = 0 | S = 0 | Stoichiometry = C19H16CrO3 | MND = 9
Cr        5.29341148702553    3.08523485553831    4.02262865997560
O         5.82267357300765    4.60632749469700    6.52497442980584
O         8.26802491842181    3.20845399621892    3.90572443785367
O         6.02995572040893    0.93113322155414    5.93701037109548
C         2.05743518892706    6.11665032371104    1.91809851039241
C         3.30187900385301    6.04309510287021    2.88319648995901
C         3.82392557424504    4.63561899709482    2.97205079933117
C         4.80279443790697    4.17525822877468    2.09043084834656
C         4.93171660488282    2.79146676057113    1.81799061086804
C         4.06832573833182    1.86878792875349    2.41408367748645
C         3.30211220134156    2.31182965388587    3.51610909542428
C         3.18229003650395    3.68205142355384    3.79490851302590
C         3.78493143022397    0.53888593479266    1.77134595921517
C         2.66302319831547    0.67555844411229    0.67147607598997
C         2.13132298833296    2.07980163148532    0.63660398810885
C         2.75807528806678    3.05435607818758   -0.13373287871839
C         2.60845959567118    4.39430157180219    0.17075085536552
C         1.83032994867705    4.78826901686758    1.25472097966058
C         1.00549449117232    3.83409640420182    1.84075230048171
C         1.15307542095961    2.49369814241794    1.53409167779111
C         5.59315800999685    4.05366977954774    5.53531745815710
C         7.11325006445248    3.17464816821167    3.89842784048228
C         5.71641992605570    1.73711460759866    5.16858783375570
H         2.23758106857031    6.89112160530689    1.17217444042004
H         1.17603604754214    6.39804758195712    2.49478881024148
H         3.00602841706867    6.40150368868810    3.86998171967071
H         4.08451940160672    6.70341884886668    2.50716022609952
H         3.45710237609096   -0.17594395460838    2.52721205356016
H         4.68936197570948    0.14375053893449    1.30678852702620
H         1.86168362353044   -0.02855064243264    0.89600990162616
H         3.08482983632191    0.41280254695856   -0.29896327613687
H         5.34002961335138    4.88188535985475    1.46824981471901
H         5.56075794209571    2.47967136010576    0.99172335302345
H         2.64781254071684    1.60940191040402    4.02030581776415
H         2.43992471267056    4.01611228241684    4.51070811955817
H         3.43988114582526    2.75822302165242   -0.91853308665540
H         3.17394720680474    5.13380162543316   -0.37825757661003
H         0.30638960965536    4.13098611586807    2.60973029439376
H         0.56802963565904    1.75706034414542    2.06627232744541

