79
CSD_code = CPASRU | q = 0 | S = 0 | Stoichiometry = C38H34Cl2O2P2Ru | MND = 6
Ru        1.10427368786467    3.74392974487841    4.42173339784777
P         2.63669457200318    5.23059404868383    3.73432349232689
P         1.40204882243346    3.44343933200897    6.62378231386179
Cl       -0.66772861183685    5.23755784331477    4.87701447309297
Cl        2.45850469747812    1.97713643075281    3.62853287073183
O         0.55334793016152    4.03422607141043    2.20293881818301
O        -0.44415868644717    2.10899679234128    4.91044865575878
C        -0.74702593821033    3.85194241451181    1.68642498450655
C        -0.88773403287348    1.14136398351252    3.98366027054104
C         2.69850677898200    4.96517222589114    1.93105363864839
C         1.55729165101107    4.38891836863112    1.35181188523313
C         1.50311748888956    4.20565547360984   -0.02444809531523
C         2.58300838448196    4.57654731090757   -0.80906760225062
C         3.71608201246963    5.13114001905961   -0.24078949958879
C         3.77151014141941    5.32649547152470    1.12873877515161
C         4.36865735710997    5.09825557441908    4.26262489840295
C         4.87533129571124    5.92806137750312    5.25843355285470
C         6.16259568738883    5.73549532761009    5.72769238902536
C         6.94741991965561    4.71655781091150    5.21274778724272
C         6.44140763006902    3.88166831343687    4.22864109262816
C         5.15437192702241    4.06340143751478    3.75764267834787
C         2.29699784355907    7.01471595689210    3.88373292807939
C         2.46719902904546    7.92588886715501    2.84840478876381
C         2.18255141183871    9.26399977681653    3.05856178017246
C         1.72821704581377    9.69807313792696    4.29302265737342
C         1.54975633205906    8.79005905250919    5.32438367113434
C         1.82899016818766    7.45257622785529    5.11939012077596
C        -0.18661926422445    2.73177746669811    7.16719686077479
C        -0.94325859486421    2.08347196203289    6.17888323932753
C        -2.13888865990815    1.46527441367591    6.52383709854367
C        -2.58083110593216    1.50975841492746    7.83605249038857
C        -1.84522905847616    2.16010892094148    8.81090968002712
C        -0.64777486271263    2.76875212058684    8.47543800574070
C         2.62530629659442    2.22513711400720    7.20477274267703
C         2.35106479431906    1.23727268056323    8.14294433310041
C         3.34587396260942    0.34998950377391    8.51564363348795
C         4.61057714317056    0.44157743151488    7.95821878686344
C         4.88416688194266    1.42054630663914    7.01644814285657
C         3.89398718199889    2.30630661444175    6.63732121113358
C         1.66131213497967    4.85483321803020    7.73643040047464
C         2.93198216615134    5.16499018138355    8.21193378105403
C         3.12660549621781    6.31029510091230    8.96358699089346
C         2.06183082147621    7.15204997523282    9.24076632402503
C         0.79699255785405    6.85097595699333    8.75977416181958
C         0.59426074304733    5.71140644568179    8.00378324602945
H         0.63720733659931    3.76090219257063   -0.49000416574378
H         2.53417434427908    4.42142459789190   -1.87652753851704
H         4.55369930905781    5.41113013692415   -0.86114950311823
H         4.64961340271650    5.76027423427440    1.58695734369136
H         4.26003589266243    6.72016387279589    5.66217273481064
H         6.55357798349989    6.38206515018387    6.49998044284348
H         7.95181005420781    4.56957654336717    5.58261589886843
H         7.04797043759230    3.08030822729905    3.83280734090276
H         4.74002454792026    3.39259822556601    3.01846960903529
H         2.81419622755595    7.59302379990946    1.88016201085634
H         2.31265489960663    9.97104892176350    2.25159247825067
H         1.50428968008222   10.74368811332442    4.44705089005180
H         1.18416840334764    9.12026843027938    6.28559058701307
H         1.66688548137357    6.72675548285152    5.90428520650968
H        -2.73822807039484    0.96592368827172    5.77827694580909
H        -3.51571935395046    1.03383011731238    8.09175859498407
H        -2.20165378543788    2.19312569649595    9.82911145661978
H        -0.06072434959412    3.27820987513927    9.22709126864275
H         1.36384925939067    1.15579028278251    8.57617636962018
H         3.12982078117820   -0.42059793131626    9.24221168654151
H         5.37984905394963   -0.25812189969391    8.25126173782639
H         5.86511483473204    1.48939329311349    6.56935112676662
H         4.08192738650150    3.05658986238210    5.88130615899896
H         3.76315582550335    4.50955459702671    7.99161396863586
H         4.11408280772279    6.54765389136820    9.33247949517699
H         2.21893240025292    8.04592765532460    9.82684838088996
H        -0.03296729782190    7.51081096610785    8.96622940886912
H        -0.38101581595953    5.49050078033085    7.59383401673704
H        -1.42303561135673    3.90510997978531    2.54364259242233
H        -1.00124538908711    4.65701812509336    0.98981570254758
H        -0.84779803112347    2.88127790562287    1.18633730616064
H        -0.13701028482285    1.11656912171543    3.18928091005823
H        -0.93520541868176    0.15305537053811    4.45164656344084
H        -1.86823012103055    1.40365847401464    3.56814512104488

