80
CSD_code = CPDRUA | q = 0 | S = 0 | Stoichiometry = C41H35ClP2Ru | MND = 8
Ru        4.78002174907449    2.01331907381745    1.47675722447272
P         4.21125440898858    0.63618888196973    3.20270956805083
P         4.55714629725164    4.00395339521297    2.54884009779724
Cl        7.09434322802189    2.04933909314799    2.06074094027430
C         5.05354851682825    2.57545858670098   -0.67571942657779
C         3.68395623259239    2.75103583845484   -0.35114693573800
C         3.14715014772428    1.49319160223863    0.01076741604037
C         4.18633025798273    0.52330993928979   -0.13184665063823
C         5.34850190023933    1.18966016942944   -0.56064798103249
C         4.76403683993466   -1.09191058104076    2.96596512732121
C         5.91057648795655   -1.32346112196645    2.21537676961633
C         6.39104769513042   -2.61114863983808    2.05609873245595
C         5.73179632978598   -3.67422164114332    2.64943374126221
C         4.60032219415255   -3.44550540033262    3.41713966895009
C         4.12040812934319   -2.16027056278036    3.58431210391912
C         4.74773668887118    0.75465031613913    4.94745381196648
C         6.05276499463064    1.17878319867714    5.17951375906778
C         6.56663191153913    1.17862184797685    6.46310800251018
C         5.78330972924811    0.75843683784962    7.52449635872006
C         4.48691657014165    0.32666705219495    7.29645215355548
C         3.97031089842972    0.31267434649397    6.01373252861321
C         2.40115961971091    0.47356409092501    3.31937673233167
C         1.67626946761626    1.35568260258651    4.11606268073354
C         0.29462248823939    1.31751848468335    4.12762147240873
C        -0.38103720438167    0.41109503553287    3.32677637983864
C         0.33142992063394   -0.45293762810001    2.51062099012167
C         1.71385101975703   -0.41967670717543    2.50195320764899
C         5.17095782641111    5.35127153498135    1.47283215131752
C         6.44829564395588    5.21050396869220    0.93018840611069
C         6.95914689605872    6.17447923962503    0.08128033973462
C         6.19568096466385    7.28092295436462   -0.25429066170642
C         4.91700499400753    7.41282244868448    0.25898881463442
C         4.40326080403120    6.45536164142250    1.11687085843826
C         5.41152963104046    4.31513271499219    4.13287947258263
C         6.71345200665820    4.79658534068422    4.20226192999102
C         7.32860953618052    4.95321843012431    5.43200616939486
C         6.65439874616483    4.63672209011464    6.59881242732277
C         5.35855980679785    4.15086130203315    6.53600241335589
C         4.74568961406130    3.98086575964749    5.31050890887861
C         2.88283177874269    4.60353869110978    2.96225042196208
C         2.69299612819679    5.73509965594982    3.75363638432242
C         1.41457917979501    6.18740537713315    4.01927010098722
C         0.31542953308548    5.52220806512154    3.49624090095926
C         0.49829391507540    4.40041824145043    2.70674296900780
C         1.77802529495370    3.94362334712327    2.44321187189623
H         5.69688261324324    3.32352408629508   -1.11901451512581
H         3.12784952092688    3.67442903547699   -0.45819394719764
H         2.10106851601000    1.26595851543892    0.17060157006486
H         4.05977155929925   -0.54960548453671   -0.06315598098906
H         6.28461412486032    0.72207808256418   -0.83654963710155
H         6.43058825083655   -0.48601208154940    1.76715081599016
H         7.28155243724434   -2.78471708115924    1.46971140403173
H         6.10157517932713   -4.68116988033657    2.52137771133344
H         4.09233078071434   -4.27351242082297    3.89061774796216
H         3.24233923725110   -1.98483998175566    4.19014762060195
H         6.65933805113504    1.51218362545045    4.34886440665363
H         7.58042508144431    1.50918077404592    6.63284702008641
H         6.18157824524037    0.76106253712591    8.52885826660380
H         3.87549591867396   -0.00966055205235    8.12197889063519
H         2.96137637647736   -0.03816374610757    5.84875323595386
H         2.20622109367346    2.07228792729641    4.72822828314222
H        -0.25598374214486    2.00118049758808    4.75752675761641
H        -1.46077893397004    0.38071049333569    3.33382077408412
H        -0.19327153190733   -1.15443629697873    1.87761971500507
H         2.26811067559279   -1.09423454201814    1.86311540377669
H         7.03346276448261    4.32941722983078    1.16201992343022
H         7.95259030137130    6.05711139673669   -0.32731717223337
H         6.59142676075620    8.03194185910067   -0.92239807367280
H         4.31065595152483    8.26552807937785   -0.01164860331891
H         3.39999371206904    6.57065719028239    1.50077716087321
H         7.24687349467468    5.04948227851990    3.29929473844830
H         8.34130523590028    5.32645132702293    5.47747785088079
H         7.13721718157053    4.76573014539361    7.55643051720392
H         4.82858488384405    3.89581265575546    7.44220929198032
H         3.73684959640512    3.59377922822065    5.25936406767492
H         3.55082426384342    6.25562049738127    4.15742112154790
H         1.27247599096954    7.06451691404919    4.63402153478661
H        -0.68163189791336    5.88102991972888    3.70613715133596
H        -0.35446349511400    3.87732787345383    2.29869605957826
H         1.93300298251146    3.05949098368158    1.83956653552281

