38
CSD_code = CPDRUB | q = 0 | S = 0 | Stoichiometry = C11H23ClP2Ru | MND = 8
Ru       13.50795629677105    4.67333718751161    5.67505880226359
Cl       12.83575799021221    4.64881866844848    7.95822175866878
C        11.75343628439803    5.49112989841193    4.56148737456458
C        12.73889663523711    5.06032069682706    3.62291120798465
C        13.90029307362406    5.83873103624073    3.81841388317421
C        13.63346932673328    6.76749465286344    4.87356772721851
C        12.30743812354753    6.55971827546557    5.30421456643969
P        15.66214450598817    4.42193903200253    6.33637799341635
C        16.68654820251377    5.93134334940874    6.14073434242850
C        16.04976539750056    4.01988950836079    8.07867339983798
C        16.71578011118551    3.20390330116150    5.44873503961381
P        12.90956889867903    2.48502217618279    5.79127925648834
C        11.10329724189848    2.28027446178868    5.99896023924468
C        13.50385708227447    1.42594540144494    7.16112413531739
C        13.21962326813678    1.39056035348485    4.34772055258880
H        10.71087852950338    5.20286850688294    4.56076712687002
H        12.57584971228648    4.36172315899205    2.81196134387597
H        14.77134316243284    5.84642189645121    3.17531755890949
H        14.26247187582800    7.60237113314906    5.15138612516585
H        11.78345852538997    7.15050715821992    6.04411500704532
H        16.69007544589618    6.24369409477589    5.09795721916375
H        16.25414747630611    6.72335172563040    6.75110231920441
H        17.70811856575331    5.73742660800282    6.46757754360152
H        15.58938862888783    4.78183967109397    8.70645572401735
H        15.60955238027450    3.06003599433145    8.34021734969450
H        17.12865048812287    3.99786852504029    8.23322311340455
H        16.31668299601919    2.20302700636315    5.60277436375751
H        16.68965346365017    3.42955064478134    4.38389861229999
H        17.74281780982395    3.24956390004144    5.80838859528058
H        10.81000723900877    2.84008173262775    6.88719326533649
H        10.58805332394615    2.68690854569340    5.12966187441907
H        10.84637638373417    1.22777508453630    6.11831296756899
H        14.57868129350528    1.27380305496244    7.07048436322505
H        13.28599491884490    1.94403775095583    8.09484407321134
H        12.99274130843255    0.46342287288772    7.13614813722416
H        12.71277690624331    1.79781848737818    3.47537428692872
H        14.28780721018740    1.35291479375215    4.14408704814032
H        12.84723991722429    0.38665965384083    4.54707170240621

