22
CSD_code = CPENPT | q = 0 | S = 0 | Stoichiometry = C5H12Cl3NPt | MND = 5
Cl        4.81620104837053    2.45925705086906    0.24835867581009
Cl        4.55181219358744   -0.15264862314713    1.90385777817209
Cl        2.46319903136191   -1.60732073983335   -0.09441710508201
C         3.18001496163021   -0.05715066403218   -2.99199693935699
C         3.16184854115379    1.10495871517538   -2.01997036261644
C         2.04120665734881    1.39063494096486   -1.24102936094987
C         1.66912734492194    2.77824821290918   -0.79994224759203
C         0.56196895141038    3.32965128231423   -1.70142953419247
H         4.13810225976072   -1.92095046206929   -3.17499022959507
H         0.28385373794349    4.32871767163701   -1.37806742815080
H         0.90388411128109    3.38163255068537   -2.73253735606461
H        -0.32137150079201    2.69625541219279   -1.66097499568169
H         4.89055295790931   -0.85213769053381   -2.11853232022976
H         3.40047533005020   -1.58246389357949   -1.56588273534920
H         3.58721503483764    0.27924415474029   -3.94861011655007
H         2.16740568041458   -0.43569318586310   -3.14674073261527
H         3.82633914088079    1.92728728920483   -2.27220743810561
H         1.19880072089319    0.70020802933491   -1.29406943929370
H         2.54081440143208    3.43179805636954   -0.83830470839023
H         1.30404968100344    2.75279807716934    0.23090400697193
N         3.99239094330690   -1.19086427764680   -2.47839228619562
Pt        3.57080877129357    0.56683809313788    0.04017487505738

