30
CSD_code = CPETIA | q = 0 | S = 0 | Stoichiometry = C12H15ClOTi | MND = 12
Ti        6.18225782320378    6.65162577758243    3.18606630977914
Cl        4.00865347587999    6.42703351059035    2.61891184779219
O         6.48242047581998    7.75885609850136    1.95989835986044
C         6.63397301921406    6.66150830309485    5.56666992027321
C         5.28309167221833    6.96544203370032    5.37511910830430
C         5.20968522132053    8.22026368324378    4.70899012426553
C         6.51910738418277    8.67694622430741    4.49764653611500
C         7.40572893316829    7.68679971804391    4.96833223036336
C         7.93204736625961    5.44301816863677    2.12149128251972
C         6.72482513731122    4.98647670498031    1.55555194181350
C         6.00390910397736    4.30407013844137    2.56313858674668
C         6.75498887837525    4.34830814786321    3.74579393475309
C         7.94455249477419    5.05857950883584    3.47909360885697
C         6.12136024201096    8.47341820105304    0.84094402910250
C         5.01001226374139    9.47800471388486    1.15952441821918
H         7.02455562284233    5.84702244580005    6.16106560662780
H         4.43635166552747    6.42135735554705    5.77750972607058
H         4.29975523852282    8.77311075466912    4.51365920033302
H         6.80489445476445    9.63527113519434    4.08311229399735
H         8.48137082495516    7.79099968728832    5.03630814032365
H         8.74668540663211    5.91704172537785    1.58696417930505
H         6.44189389714766    5.05148832204463    0.51183142109395
H         5.08216332793598    3.75624142333222    2.41425296962476
H         6.51867617976461    3.81556417318041    4.65769969530847
H         8.79014277537093    5.15333192590677    4.14710688488782
H         7.00773230659232    9.00144480497390    0.44673157436687
H         5.76258276558718    7.76575169890900    0.06959108201728
H         4.15602446281901    8.94148858804180    1.57174789418840
H         5.36148951511282   10.20554668853396    1.88936481103781
H         4.70716806496571    9.99688833844122    0.25418228205379

