29
CSD_code = CPFSFE | q = 0 | S = 0 | Stoichiometry = C13H5F5FeO4S | MND = 8
C         1.45568284397565    4.22407263834954   -1.42516814010774
C         6.68796184393462    4.34015443266295    1.45456907413593
C         5.82994208552436    4.43758780641994    2.54697397401369
C         4.46558742829689    4.20850181593479    2.38226257108123
C         3.98865939176826    3.88302366746404    1.11684172972769
C         2.16182024252984    3.27479427396479   -3.47944677470695
C         2.57807046684510    0.93661218338247   -0.46747111630743
C         1.24340515320252    1.33257464843402   -0.25808816820513
C         0.53883064317727    1.16456833123849   -1.47583568435715
C         1.44445882511076    0.63520900931040   -2.43065031015059
C         2.70650142888774    0.51594146441309   -1.81757857946035
C         4.82435463228542    3.77181750470916    0.02603536523019
C         6.17659363687159    4.01258953158660    0.19624997997558
Fe        2.15405572877995    2.66972387101411   -1.83701502448140
F         7.99187424546733    4.56027888474620    1.61918866699074
F         6.31138554065669    4.74775507242829    3.74923247891945
F         3.63679732947688    4.29690878815874    3.42423476038699
F         2.67161527826394    3.65221992252683    0.95063780785588
F         7.01043617970346    3.93326650395198   -0.82898196800691
H         3.34337335034842    0.85729866082102    0.28657348773366
H         0.81061241939404    1.62574859430325    0.68213333692171
H        -0.52481658550315    1.27698875674815   -1.60842501265929
H         1.19073519795555    0.30730286669334   -3.42449356357807
H         3.58499721245538    0.07311440277173   -2.25254049525745
O         1.02534946165976    5.25415558263689   -1.21165806406417
O         2.16941301297468    3.68928787214643   -4.53650546332579
O         4.21409126236429    4.81805941938136   -2.26769986820970
O         4.99973108693813    2.46823205605629   -2.26947641095477
S         4.13848065665420    3.48531143774003   -1.71669858914168

