33
CSD_code = CPHCOP | q = 0 | S = 0 | Stoichiometry = C13H18OPd | MND = 8
C         4.03177684203150   -4.16292291286522   -0.11228952233782
C         5.02463217213325   -1.93719613417484   -2.21648744321265
C         5.44641165305854   -0.83185167197244   -1.42580449366787
C         4.35338140490680    0.04485596056080   -1.31966486810567
C         3.29490695891887   -0.44195251859028   -2.14683387443865
C         5.08003818518271   -4.38631234351614    0.97717942445213
C         4.62186150656079   -4.00951069070043    2.39172555721811
C         4.32820126903659   -2.51800170856243    2.57383424360373
C         3.38269463806996   -1.84312610949410    1.60281798449048
C         2.26682419004762   -2.38109431296686    0.96208726084795
C         1.81302743014200   -3.82317432074842    1.09598282969094
C         2.64844843806482   -4.74413023289299    0.18406372146481
C         3.70280612434865   -1.65102082026757   -2.70935403464748
H         6.09583655257026   -5.94583947654450    1.59766464981706
H         1.88117314522660   -4.12493499774150    2.14248196963992
H         0.76125722267148   -3.89416493773835    0.81220972145075
H         2.75528663504575   -5.74265894648226    0.61777828446305
H         2.12422565394542   -4.85006898427862   -0.77056015236911
H         3.17903510006372   -2.22322377582849   -3.46254758279155
H         5.67727730791413   -2.70555658069023   -2.61451191219107
H         6.44320609019956   -0.66901439406448   -1.03772744898951
H         4.36828487542854    1.01710861012278   -0.84483886463604
H         2.37927879998083    0.08974137844131   -2.36202559988703
H         4.42798172164292   -4.62529740914115   -1.03124515252173
H         5.97835249798610   -3.78159466275748    0.72023981592398
H         5.42549868288112   -4.27098504595337    3.08965853107928
H         3.76297377760632   -4.62231851386579    2.65527331859869
H         5.28101382059699   -1.97504282626183    2.52421644845727
H         3.93080598382935   -2.36770291069050    3.58535673869754
H         3.38402403590388   -0.75271054875180    1.74002225135811
H         1.48153899216350   -1.67708782884262    0.66320018992322
O         5.42292218253564   -5.76689841327786    0.93170591636983
Pd        3.83311610930452   -2.14121191946553   -0.41860790775093

