26
CSD_code = CPIFEF | q = 0 | S = 0 | Stoichiometry = C10H6F6FeN2O | MND = 8
C         0.17608491825295    0.46535440166406    1.87170885322129
C         1.35467590744765   -0.21550823504851    2.23994489788605
C         2.41986093964516    0.34353533764587    1.50121709299294
C         1.87810246979060    1.31896903967001    0.61069168338330
C         0.50120207624396    1.39485658703172    0.83686515774701
C         0.41081481460077    3.02889695227688    3.40299494563743
C         1.70724903562857    1.93726073446970    4.61186550270275
C         0.83534431297468    1.14462512384115    5.54026278242549
C         3.37369838615795    3.30768214812486    4.26613246848992
C         4.46607091626574    4.23857843066361    4.74634674460473
Fe        1.58256544095887    1.91324277188331    2.74773228122891
F         1.44974898329559    0.02160088975839    5.94594333559444
F        -0.28472951715550    0.73580521843630    4.90083240282507
F         0.43175900723744    1.79051613729248    6.63454120992546
F         3.98496664161093    5.29430412796712    5.40822347866126
F         5.34319937917608    3.63094002735172    5.54762494407111
F         5.16774959446487    4.72557242628657    3.70523796828687
H        -0.81878060009846    0.22395484297380    2.20567464694687
H         1.42040238098915   -1.04088834219054    2.92717179196246
H         3.43253665361111   -0.02431201891556    1.47728314229447
H         2.42909166701595    1.84293432349367   -0.15173518666354
H        -0.20715601618113    1.98457995491217    0.28051975576658
H         3.74081638610694    3.54336095642110    2.34315100145097
N         2.61240688703713    2.69520491606179    5.18376067690175
N         3.13787375205117    3.06306925746472    3.00708068484680
O        -0.38875441713114    3.72286399046350    3.83952773681187

