39
CSD_code = CPMXNI | q = 0 | S = 0 | Stoichiometry = C12H20N2NiS4 | MND = 4
Ni        0.00000006897995    0.00000018341356   -0.00000012129818
S         1.80077733149793    0.07271537580951    1.29070305206957
S        -0.74460801289958    1.29442383097048    1.63800485189500
C         0.78801499919284    0.98251270103983    2.31713115690305
N         1.16253720770952    1.42375328116196    3.51086470434636
C         0.25063323025498    2.08995993515566    4.41348044544187
C        -0.07371950410714    1.16787504272043    5.58905909641495
C         1.21518916540414    0.74419682491094    6.28930732527835
C         2.16359416045471    0.09483086583911    5.28431381863031
C         2.42014438727115    1.04909426305620    4.11766734534452
H         0.73378198414308    3.00381896414004    4.77520712379000
H        -0.65406480313843    2.35848244971887    3.86637709027780
H        -0.73566991694752    1.68604856451826    6.28322471812394
H        -0.59604077483187    0.28627860421550    5.21302986242632
H         1.69578040261111    1.62137083038549    6.72931937442642
H         0.98976157971904    0.04505154988448    7.09572323671821
H         3.11156994914254   -0.15889546265942    5.75919877967091
H         1.71867868316795   -0.82398169016906    4.89794713303802
H         2.91089697390265    1.95946727097021    4.47798503147700
H         3.05108832141457    0.58043087344461    3.36122443069204
S        -1.80077737421401   -0.07271551033863   -1.29070298026121
S         0.74460795907705   -1.29442394745775   -1.63800478439501
C        -0.78801497897829   -0.98251265421790   -2.31713117224004
N        -1.16253719839205   -1.42375325939563   -3.51086470938670
C        -0.25063322954261   -2.08995993489327   -4.41348044376044
C        -2.42014438642296   -1.04909426025123   -4.11766734422820
C         0.07371950184983   -1.16787504220044   -5.58905909480699
H        -0.73378198222320   -3.00381896658093   -4.77520712065355
H         0.65406480698774   -2.35848244440699   -3.86637709072780
C        -2.16359415948798   -0.09483086673532   -5.28431381988234
H        -2.91089697393643   -1.95946727023244   -4.47798502695110
H        -3.05108831980528   -0.58043086526358   -3.36122443233155
C        -1.21518916648687   -0.74419682720849   -6.28930732699566
H         0.73566991395444   -1.68604856698491   -6.28322471454187
H         0.59604077237447   -0.28627860250201   -5.21302986256585
H        -3.11156994946802    0.15889545643325   -5.75919878037794
H        -1.71867868316337    0.82398169134511   -4.89794713730186
H        -1.69578040352439   -1.62137083410701   -6.72931937402296
H        -0.98976158153961   -0.04505155352851   -7.09572324023539

