47
CSD_code = CPMZPW | q = 0 | S = 0 | Stoichiometry = C19H19N4O3PW | MND = 5
W         2.82031849379443    2.34860297365169    1.73650553699820
P         3.73713360048868    5.26767240024703    0.56473689541685
N         1.87197627448571    3.42549812892351    0.06140743837754
N         2.32823080634646    4.66643370404184   -0.23599086666239
C         1.57890729610307    5.23362969489116   -1.22383004377805
C         0.61779987053615    4.31494420367857   -1.55633435281218
C         0.84141615698415    3.19493506986401   -0.72475080029795
C         1.86820680801001    6.59750718850337   -1.73242435942437
C         0.07740069916602    1.92336159039838   -0.69945228808775
N         2.53260299435387    4.24429566179400    2.74074582899825
N         3.06238796947662    5.34418702220867    2.15441320291328
C         2.87168489152293    6.44580068598649    2.93878436376919
C         2.20725075278954    6.01527477251495    4.05764501177924
C         2.01430436263813    4.62622232443657    3.88916233357462
C         3.36271242095210    7.78451729325493    2.52859991505180
C         1.34345785165467    3.67705969565019    4.81098107011249
C         4.51649260236612    3.61086109252806    0.70138156071409
C         4.87503092563996    3.00046775917274   -0.52611879466899
C         5.75239264870457    1.94983077742139   -0.56109820348041
C         6.36721417313240    1.50902849689992    0.61819225956206
C         6.09517221734287    2.12847731946646    1.81107011467082
C         5.14643188588857    3.16473556172556    1.88912544700683
C         3.59739784700477    1.43136737503585    3.28802756722030
O         4.07275739789300    0.86445817723386    4.16943234017630
C         3.18519752489210    0.70818595206774    0.72265123707896
O         3.42762149693785   -0.26444586672508    0.15828283905355
C         1.09697983510187    1.59546614449330    2.27309513973070
O         0.11296335906150    1.11709651737783    2.63399645088664
H        -0.14761365760528    4.41712292877476   -2.29858821159002
H         2.93010922477368    6.70524482248028   -1.95529343950708
H         1.59936398747685    7.34823033186339   -0.98755967332042
H         1.29484560911605    6.78720127224969   -2.63555523731429
H        -0.73234353206893    1.98175148524779    0.02719706964358
H         0.73353136424711    1.10406806425600   -0.40935937325623
H        -0.35223389691171    1.72616040249627   -1.67871246792646
H         1.89535224649861    6.60722898595879    4.89397365948689
H         4.45177870617606    7.79074030631389    2.46814154783858
H         3.04824075469726    8.53273257000737    3.25084412380779
H         2.97006835567750    8.05247008327431    1.54696171507737
H         1.90970521173847    2.74812939636448    4.86383313068756
H         0.34729202199915    3.43460907748545    4.44206882873732
H         1.25472311534610    4.11304167663649    5.80246377309703
H         4.44508193627373    3.38233404795240   -1.44695691271706
H         5.99198524244932    1.47505001289281   -1.50053401139661
H         7.08205977523486    0.70185811001259    0.57517325211863
H         6.61426219963553    1.82876198003032    2.71067483731106
H         5.13484817197265    3.78499272896050    2.78399054534363

