24
CSD_code = CPNBCH | q = 0 | S = 0 | Stoichiometry = C11H11NbO | MND = 12
C         1.84131654793924   -1.47520467312305    2.48438470335664
C         1.21888322000692    2.49292338061475    2.31233149154974
C         4.55785283612776    0.72519963455421    1.24130097367763
C         3.17957755100365   -1.70658030961589    2.11394946354437
C         3.22544494415125   -1.80864654539475    0.69826871256532
C         1.90962215635082   -1.65104039688252    0.20990167682922
C         1.05873965446930   -1.42139683342007    1.30622677538535
C         2.56384592332063    2.94969432063080    2.33474274135773
C         3.25558708106527    2.19921697196180    3.32080500489901
C         2.35272995344549    1.28222890580058    3.87974912750489
C         1.09832986661411    1.46347270761935    3.26336302654488
H         1.45003705426202   -1.52895880036452    3.49371065596327
H         0.40602051159332    2.96515743506807    1.77569383886221
H         2.24973697941378    1.14904195822055   -0.01955246298085
H         3.99389877178177   -1.94915417171964    2.78479326025036
H         4.08352594862872   -2.11320643256113    0.11240790262888
H         1.60410967448014   -1.75444067673309   -0.82234168956722
H        -0.02253944343885   -1.38405652836869    1.26509826581550
H         2.93745860502785    3.83749425773137    1.83805784498812
H         4.26363357266976    2.39151473342991    3.66446356566272
H         2.55654424614773    0.64143399668511    4.72746346485388
H         0.16875685979561    0.99753482999934    3.56892772976103
Nb        2.58173523459685    0.58006139618603    1.49447478875890
O         5.71555225054872    0.72791083968140    1.23597913778753

