24
CSD_code = CPOCNB | q = 0 | S = 0 | Stoichiometry = C10H10ClNbO2 | MND = 13
Nb        9.71871889064281    1.13132297899962    6.54586117096392
Cl       10.47766352538269    2.17388595069093    8.52249289381766
O         9.71440721840715   -0.75074737107944    6.20525797984501
O        10.21035669236855   -0.45550830029712    7.41739543953157
C         7.63112080949546    1.39282263274575    5.12012399933774
C         7.94457656206303    2.67164221681875    5.63785197772408
C         7.81428007258265    2.61879477542990    7.03913416032677
C         7.40454957405269    1.30180602458674    7.39338380719072
C         7.26237618892360    0.56196326451323    6.19825520620581
C        10.67135004057497    2.16434183049048    4.09970758405637
C        11.12175834732620    0.88016253798280    3.81060621481394
C        11.95770251467447    0.44935725951808    4.85495170371405
C        12.02125010432173    1.46714639826842    5.82672439262713
C        11.17855573749813    2.55171367229342    5.37585585174851
H         7.54397272889198    1.13463009130792    4.07425838422427
H         8.09581093998787    3.57266857788931    5.05745233727104
H         7.85664438832753    3.46327034018612    7.71546248375247
H         7.09645232299641    0.98240879874698    8.38203464377647
H         6.88905497588086   -0.45069682250227    6.11828538638048
H        10.08379181134531    2.79052905702420    3.44452582789800
H        10.88892179487995    0.31271522817846    2.92542241718953
H        12.48213589098096   -0.49326942261718    4.89986539062183
H        12.76372298847180    1.54258000457732    6.61515814099648
H        11.30492587992728    3.58116027624110    5.70243260597591

