69
CSD_code = CPPHZR | q = 0 | S = 0 | Stoichiometry = C38H30Zr | MND = 12
Zr        7.12546275406838    2.47850108447539    5.04310136548435
C         7.39349857210420    2.44867193266062    2.86952336639689
C         6.21131679927862    2.41610855487919    2.19646954825383
C         4.96238939516046    2.32704057942366    2.98464522597130
C         5.05135263706175    2.41068035111528    4.33975044489842
C         7.71598586255466    4.88375363295594    4.54366442065792
C         6.68637587710336    4.88571638916995    5.50947050986665
C         7.20603184821186    4.32325342083348    6.70163325785453
C         8.55793504089888    3.98787797356792    6.46562088010617
C         8.86844676478301    4.31800132548457    5.13165248249224
C         8.62873160824904    0.71954925539901    5.94552171158034
C         7.78175827360899    1.06243191406876    7.02311714145640
C         6.46936275219153    0.66903496779255    6.69552211219647
C         6.50282376128163    0.05867526908794    5.42259093099796
C         7.83444184919219    0.09084045593822    4.95504314525867
C         8.67411845341020    2.73706954863346    2.23156522173631
C         9.83724809827871    2.06481190174134    2.63878162931957
C        11.06953496959425    2.37929216134955    2.09947944044763
C        11.18556386019903    3.39109275435918    1.15926554885061
C        10.05238358310530    4.08300385695513    0.76206550780796
C         8.81589514644075    3.76247012943552    1.28495094865986
C         6.12268092670965    2.46040898551835    0.72075483767620
C         5.29196580679811    3.37729814937980    0.08010595411725
C         5.23271746411392    3.42505618387402   -1.29975591488337
C         5.99890544347260    2.55872383459831   -2.06152425725709
C         6.83111670704842    1.64637194670941   -1.43448937256676
C         6.89366238348226    1.59793177613909   -0.05498140537124
C         3.67840553237630    2.15398013170390    2.27102899877760
C         2.59794385659169    2.98671006335194    2.55174678002023
C         1.38910078311383    2.81266821871619    1.90528329200780
C         1.23937101636773    1.80241998576816    0.96984677564416
C         2.30563330939869    0.96496184615488    0.68760799515029
C         3.51621655168126    1.13828522852829    1.33111371623952
C         3.92848441338996    2.14821193455225    5.23537338097595
C         3.74295364311826    2.92660733068070    6.38852234791145
C         2.73009856994396    2.64525350397486    7.28477002083383
C         1.88814805766776    1.56459691707208    7.07422909665210
C         2.06868263777011    0.77085000743593    5.95262992247732
C         3.06857252576362    1.05650796307432    5.04500477925794
H         7.66343880607135    5.34278115602085    3.56482310369250
H         5.72868608637629    5.38027965818948    5.39389699851133
H         6.71054538992093    4.30354746245768    7.66745301998685
H         9.27199867332826    3.66728587901169    7.21518487723543
H         9.85120907594612    4.27384876087405    4.67679267234427
H         9.71275554039376    0.77948740960969    5.95136031505027
H         8.10310847281836    1.43077969795992    7.99039712681311
H         5.61038510856997    0.70496659228831    7.35551086102775
H         5.67761733889764   -0.44897629300343    4.94019166426853
H         8.19423558603082   -0.42209262582707    4.07033622921537
H         9.76142099166695    1.26961616045339    3.37508585108343
H        11.94959759730112    1.83758439427079    2.41765885030495
H        12.15067326702552    3.64051552447440    0.74437652217215
H        10.13502549891120    4.87876562453460    0.03559974163701
H         7.94030440720224    4.31286335765740    0.97105504038455
H         4.70091061108523    4.06316231456751    0.67011333979830
H         4.58535018703239    4.14225924120714   -1.78383302725997
H         5.94849299919965    2.59541300565188   -3.13996566295513
H         7.43203428531470    0.96892820183693   -2.02419850418926
H         7.53943983024469    0.88306243340464    0.43635020660161
H         2.71761281758595    3.77762989456162    3.27939166372461
H         0.55984096009856    3.46809788114722    2.13005244001480
H         0.29477144897141    1.66716903662197    0.46351904672588
H         2.19296404511295    0.17187977270390   -0.03774921084718
H         4.34203468830165    0.47506837179191    1.11623650964130
H         4.39281093531047    3.77835380400302    6.56500180760442
H         2.59728413922138    3.26829158021680    8.15847294605953
H         1.10159808063710    1.34186570583051    7.77959572661740
H         1.42068200855293   -0.07735034534582    5.78394425957581
H         3.20085358723326    0.42799487634010    4.17574379722760

