48
CSD_code = CPTICB | q = 0 | S = 0 | Stoichiometry = C25H22Ti | MND = 12
Ti        2.57730313962053    1.14605919137719    1.35987161890947
C         2.06891030310519   -0.03594500246842    2.92837424261148
C         3.27143590296714    0.10378913527632    3.52429451309521
C         4.24570084215887    0.72994679901492    2.55974102036747
C         0.92395967774749   -0.82255114066019    3.31698794467630
C        -0.38425995080839   -0.42017757615786    3.01371180505891
C        -1.46461105328797   -1.21901963776158    3.33322488008569
C        -1.27198920093873   -2.44890376335410    3.94236314335093
C         0.01677464559110   -2.87544370075377    4.22518705413324
C         1.10003315747775   -2.07963209779120    3.91641239789474
C         3.64020103093193   -0.19613036515423    4.91094198264465
C         2.69304504619983   -0.12676611324924    5.93523973353117
C         3.04954098795517   -0.38900581701788    7.24290008483779
C         4.35795483432717   -0.72145583243749    7.55785745698933
C         5.30922128762105   -0.78264182005682    6.55336325037748
C         4.95718027744368   -0.51669763654283    5.24364448318667
C         3.01294418669151    0.95499161057965   -0.93358064097749
C         1.65799995749966    0.61307134718850   -0.74839723343566
C         1.60178250963038   -0.54377806344354    0.04752436636301
C         2.92687717270334   -0.93271499871475    0.34204444400349
C         3.79899357984761   -0.00247555437969   -0.26544053883673
C         2.68785024088876    3.09589406734143    2.67251263853927
C         1.34977847316889    2.65159980296917    2.66598090407986
C         0.86871745904878    2.75418673976363    1.34104598375566
C         1.89927414397577    3.28831819975310    0.54507842992465
C         3.03411836016787    3.46319307394361    1.35274988001203
H         4.91481448974378   -0.04385504107536    2.15877062699051
H         4.86400496585447    1.50829652704913    3.02610605375567
H        -0.54456566063116    0.53452333318435    2.52488449005424
H        -2.46631740135951   -0.88560824915612    3.10009700402095
H        -2.11833869827249   -3.07346700094273    4.18674335262848
H         0.17530639045390   -3.83844003264011    4.68956811628756
H         2.10352486593930   -2.41705877902471    4.13473875238417
H         1.67514660466436    0.14420121100888    5.69328118565805
H         2.30522750626176   -0.33020226957615    8.02416082948290
H         4.63483117054122   -0.92748413229760    8.58141629044114
H         6.33171180653147   -1.03823106826977    6.79329650841222
H         5.70419630844701   -0.57302757065405    4.46475161384961
H         3.39168540884802    1.73046367140943   -1.58771766274251
H         0.81195078463531    1.08957473273918   -1.22733655174516
H         0.71031944271718   -1.10885680727464    0.29176105169706
H         3.21838595424443   -1.84165048646276    0.85449800602771
H         4.87725841111381   -0.08780494028607   -0.33050435657735
H         3.28868006867849    3.25301530229553    3.55912660291544
H         0.76266786363366    2.42543178371195    3.54741941503191
H        -0.15788389773721    2.60493117330600    1.02590311036284
H         1.80456769076749    3.59338948635358   -0.48859295830686
H         3.96558891319987    3.92844830934247    1.05129467419903

