39
CSD_code = CPTPHF | q = 0 | S = 0 | Stoichiometry = C38Hf | MND = 12
C        -6.49296489655333    2.38573858198423    2.87168230910608
C        -4.72375432125606    1.42012563537558    5.67224604208862
C        -5.05138994804980    2.04530519324213    6.88520940145256
C        -6.05739138789465    1.02267684015005    6.76421207755979
C        -6.59317475979158    0.00084293128734    5.96338912132814
C        -5.22351347839061    0.14315448896950    5.57628595266831
C        -5.25696363117357    2.51545362148929    2.21316128150449
C        -4.06349563416976    2.56241697299831    2.95164649263770
C        -3.00089407479516    2.68666354963829    2.20930357677121
C        -2.92216786772841    2.77223092444623    0.91137325115682
C        -3.98013301861557    2.73531380044018    0.16513353511169
C        -7.67393249602277    2.36753755756735    2.14781766648910
C        -5.22544409551527    2.60927596874331    0.74088485385663
C        -7.69958938744933    2.45277548069560    0.73331579568471
C        -8.96196414861644    2.41885737784882    0.04924696972180
C        -8.82369300975393    2.50298920029048   -1.30091539278041
C        -7.67574207476239    2.60400572635380   -1.86963989449851
C        -6.45777722323477    2.64872554844229   -1.38293941633035
C        -6.45675998596712    2.56924197831408    0.02587400813459
C       -10.17590714887833    2.22755946727765    2.23496255715417
C       -11.37677121997715    2.12046649712334    3.01532074283241
C       -12.63066207522208    2.09058892589162    2.36842835398551
C        -8.92675793694272    2.25729665914896    2.90348969522798
C       -12.50073254057222    2.16801900473057    1.06460233583738
C       -11.47000933163577    2.26569615542191    0.30329233442137
C       -10.20502712857577    2.30599965906241    0.80223180309300
C        -9.98005727164216    2.07828656216519    5.08057852734529
C        -9.85308359070271    2.00251842316579    6.47858130480432
C       -11.00414594032020    1.90647773818169    7.08193661545125
C       -12.20184271080621    1.87388049177910    6.56862976804320
C       -12.38343349884271    1.93903939132862    5.28802393247522
C       -11.30599624128639    2.04464020118402    4.43672105964937
C        -8.83223333682147    2.18700662221028    4.28056046982290
C        -6.25727235419578    5.40839340856440    5.14991759460644
C        -7.03392580024443    4.89450810229332    6.12188873224103
C        -6.97855551350396    3.66234655740432    6.76017665904833
C        -5.54229150557022    3.43450308479563    6.86294265131776
C        -5.62085930787602    4.16246238073591    5.64217625694603
Hf       -6.82069010664360    2.25887928926014    4.99625097403399

