47
CSD_code = CPYFEM | q = 0 | S = 0 | Stoichiometry = C20H20Cl2FeN4 | MND = 6
Fe       -3.10527411122825    4.19540947836803    5.53529050619531
Cl       -1.72223846089427    5.68602810622815    6.37088661590008
Cl       -4.48211137610375    2.70221161373111    4.69532686968005
N        -1.57845382165090    3.17877343688486    4.83164431938551
C        -0.47391210350795    2.98540452883816    5.56031752038917
C         0.62190444800376    2.27895753594345    5.10360700128591
C         0.59144275925944    1.73024266681649    3.83065434277413
C        -0.55226845564647    1.92472010342551    3.07126063343136
C        -1.60067113550917    2.64971033802792    3.60375360120127
N        -4.62989175346186    5.21225751571743    6.23352169967686
C        -4.67713199681317    6.54597098510006    6.14454751077869
C        -5.74059109415812    7.29954276779593    6.60206910887511
C        -6.82591482343283    6.65871815405562    7.18007389940556
C        -6.78223457907804    5.27623155195220    7.27704509704027
C        -5.67544945344238    4.60071605776682    6.80058002322396
N        -3.19502072007131    5.22354441640332    3.85986804279630
C        -2.10222761405664    5.77100094155714    3.31744938246224
C        -2.12432446411647    6.51154597798833    2.15137681767083
C        -3.32932344225396    6.70093084149237    1.49205821100030
C        -4.46506830134136    6.13045824311924    2.04625876639467
C        -4.35428093130980    5.41045281116989    3.22002839009320
N        -3.01497366386258    3.17536290152804    7.21136670886837
C        -3.04071467585179    3.78534488611164    8.40119910532706
C        -2.96092680720694    3.10781872297248    9.60244827422222
C        -2.85718689072574    1.72514010842025    9.59470646845563
C        -2.83792195406018    1.08618974836423    8.36424144775619
C        -2.91486540074562    1.84178860569178    7.21035008373542
H        -0.46262093850942    3.44126152634447    6.53864441560185
H         1.48479339059402    2.16421011300784    5.74054356673909
H         1.42958063448959    1.17091922091107    3.44397084125137
H        -0.63648576824824    1.51952279143768    2.07514899214005
H        -2.50969440385343    2.79305846934476    3.03972561155898
H        -3.81162771640725    7.02498674190808    5.71276340593769
H        -5.71336897906456    8.37337220328512    6.50426076077761
H        -7.67542281261330    7.21700638473548    7.54273943101868
H        -7.59664150132146    4.72141148571221    7.71566585503719
H        -5.63044362597458    3.52327395282573    6.84494801526346
H        -1.17961675363997    5.63021629556475    3.85973264672841
H        -1.20728981487746    6.93271433412434    1.77028752645895
H        -3.38148033436746    7.27288796352288    0.57828508002170
H        -5.43027400627305    6.23924914027793    1.57713494637071
H        -5.22097343456289    4.93753662534391    3.65622255845798
H        -3.09883899380975    4.86295476981057    8.38285937229641
H        -2.97892551397389    3.66114182392074   10.52818887419168
H        -2.79421900662305    1.16522439630440   10.51524487385348
H        -2.76408573199822    0.01230885963218    8.29390093061390
H        -2.92493386570080    1.36446985651818    6.24230184765811

