23
CSD_code = CPYHGQ | q = 0 | S = 0 | Stoichiometry = C18Cl2HgN2 | MND = 4
Hg        9.48922067138915    3.49343375301739    2.09785230917671
Cl        4.93204741813314    3.85610204261803   -1.72544655192143
C        11.47403000260535    4.70452087689548    4.52780211371920
C         8.06180855699162    3.53217504955136    0.52761251760371
C         6.47769884742652    3.34654824028051   -1.47956386387999
N         8.87549050372650    1.22261878179344    2.93257866205346
C        12.90125584021040    1.04422900151635    0.25154003617995
C        11.70043006853810   -0.66625482626283    1.36115731556628
C         8.15911140081219   -1.12910415020575    3.82472955028312
C         7.80943688593300    1.16370648664932    3.65648040731499
C        10.79495795251671    0.43071074887122    1.77612666218166
C        10.22942016803870   -2.07332656144236    2.59921971044290
Cl       13.31589120142822    6.10371057730515    5.84990557087358
C        10.71766942767375    4.26522379136634    3.64679381520011
C        12.14152954204224    4.96692722723114    5.65968608821849
C         7.19242809808563    3.51380641798906   -0.35834544765764
N        11.04579621389061    1.67862282776903    1.38504988303059
C        12.03977221176306    2.05247908559077    0.65293596757983
C        12.71522402087818   -0.17126068638821    0.59186572287890
C         9.29611735059183   -1.17170151686414    3.06837492920543
C         7.46386480021137   -0.09843243553171    4.11141102862876
C         9.64417369895273    0.18895813840052    2.59571324404587
C        11.24272511816899   -1.86049287014910    1.87942032927520

