37
CSD_code = CPZRBZ | q = 0 | S = 0 | Stoichiometry = C18H18Zr | MND = 12
Zr        2.14289315684270    1.19614923886056   10.98553519576093
C         1.73459424133366   -0.06958526645303    9.20161574677505
C         3.14274455462660   -0.16249560880102    8.69459819036473
C         3.98292548120407    0.97726294545421    8.82807265606740
C         5.31299855940402    0.87948358653607    8.43867537391360
C         5.82855897373782   -0.30227822317727    7.92357210684755
C         5.01204280240928   -1.40920190290373    7.79258320729693
C         3.68007866819276   -1.33478988909291    8.17758637280377
C         3.41209909989332    2.20870250775482    9.46466687221481
C         0.86358582806760    2.88026356854524   12.40135326132603
C         0.03053305558175    1.74858254860627   12.29374234811898
C        -0.34430458878807    1.60654330086040   10.94051891106282
C         0.24332724567305    2.66681404591484   10.21559985943351
C         1.00504603461442    3.44426972493786   11.11530443242741
C         4.04451907880895   -0.31677445810038   11.63043555211632
C         4.25109009390957    0.90338900390965   12.31046970748251
C         3.22790643286310    1.03930208304101   13.27684749715064
C         2.37743793371034   -0.07870435670603   13.17311747260547
C         2.86838761102656   -0.90970761313214   12.14019894564237
H         1.13449270992556    0.51639892040431    8.48052681575343
H         1.28867524808218   -1.07733032496487    9.27138590881649
H         5.96364234319105    1.73798690410561    8.55141412916421
H         6.86722494671492   -0.35436112484561    7.63034516650743
H         5.40742585017811   -2.33331996702574    7.39606114558779
H         3.05134746944124   -2.21197402827653    8.08641658012859
H         4.22214392422854    2.91043693175263    9.73043382179829
H         2.75256517666229    2.71386655095301    8.73434770852567
H         1.20836105838732    3.32899015907847   13.32502586225527
H        -0.37597409879464    1.17915364369803   13.12053976928855
H        -1.07608791334720    0.90475414180689   10.55540483452033
H         0.05573771288644    2.90374751806881    9.17535685536032
H         1.48425866812989    4.38989912569028   10.88657698934584
H         4.72345265542650   -0.76753093743543   10.91925908264768
H         5.13075938308291    1.53183267795943   12.22445748425416
H         3.19496177953526    1.79205801746095   14.05595014372516
H         1.57856916642839   -0.33443037097651   13.85917694462262
H         2.50987965672987   -1.90540307350897   11.90202704828803

