31
CSD_code = CRETAG | q = 1 | S = 0 | Stoichiometry = C8H14AgN6O2(1+) | MND = 2
Ag        5.38307578272687    1.93328507629765    3.06459445192623
O         5.00701672342618    2.50945172918353    5.44963646541769
N         3.34771077733083    1.70903809594238    4.12487723577594
N         1.59775597297035    1.80263463509077    5.50738327951183
N         1.27025545688032    1.01138768386094    3.31262960970618
C         3.84373730445427    2.19999868870163    5.28910503225501
C         2.70687901631248    2.28221041137435    6.29778931404393
C         0.24934622032321    1.66666597985910    5.99626846242577
C         2.04010019236157    1.49408685855015    4.28245746887117
H         2.90228126295854    1.64772682722947    7.16668426239585
H         2.55613403952094    3.30945556212685    6.64052451111418
H        -0.05735099829773    0.61832129408625    6.01617097497657
H        -0.44816735828639    2.23481741795619    5.37732672223040
H         0.20585312854348    2.05841437379387    7.00909698639522
H         0.27934636927821    0.89539527826345    3.42973409466701
H         1.68525951048699    0.85719977126390    2.40924256728656
N         7.41871972151876    1.70931286925981    2.00470888816256
C         6.92218977485472    2.19814820733336    0.83974819407769
C         8.72655388686348    1.49534224281308    1.84748961564813
O         5.75854164458661    2.50612953691774    0.67867411905494
C         8.05903253133316    2.28000596592817   -0.16896843299533
N         9.16885705774095    1.80370401889278    0.62248521224503
N         9.49639714401458    1.01366355068119    2.81773725491264
H         7.86454448858642    1.64341466968334   -1.03655384530726
H         8.20834381078644    3.30673490846168   -0.51387542083549
C        10.51686616946721    1.66682069571671    0.13282530595690
H        10.48719758666851    0.89688957775358    2.70061443507435
H         9.08135731462353    0.86034311827890    3.72122559866638
H        10.81823597714269    0.61727979904476    0.09869174322958
H        11.21651331664259    2.22268369977891    0.76020391612555
H        10.56351617418490    2.07253745588219   -0.87432802302553

