57
CSD_code = CRMTBH | q = 0 | S = 0 | Stoichiometry = C24H23CrN3O3S3 | MND = 6
Cr        1.81316870217137    2.18297036094920    8.22590583904321
S         0.86081138066314    4.14307287595543    9.33273124763915
S         3.68277714445726    2.71700413333284    7.01435160164604
S         0.65857931917740    2.55055334905077    6.26340844695045
O         0.67572378076078    1.31111817767272    9.44159088204251
O         3.14509428519254    2.53090960011604    9.64890653903255
O         1.89706757446480    0.34524761215587    7.48099061069741
N         0.34521952117120    1.92155075327391   10.57788174109313
N         4.46113366315191    2.62771123724773    9.48787805953997
N         1.82131764095623    0.23477907545595    6.16358689635360
C        -0.15242086262229    1.02331593002360   11.59572594419512
C         0.42154475683290    3.23306248432295   10.67955778622796
C         0.10689317410703    3.93142749183586   11.93060891758084
C        -0.76222713022502    5.01993632419697   11.91065680850497
C        -1.03795448542450    5.71086841527141   13.07511482163125
C        -0.43479750696217    5.33929427768553   14.26615609553747
C         0.45295431754310    4.27644786215371   14.28703291745902
C         0.72266793887130    3.57155101918893   13.12832018684676
C         5.19284900917867    2.75562646577045   10.57425476520166
C         4.90227811682123    2.68099637789140    8.20372883427218
C         6.29984533664688    2.65163361394377    7.81778377904093
C         6.70498763224374    3.35902853975286    6.68078828343022
C         8.01699274800090    3.32395737746356    6.25621664102384
C         8.95609703169597    2.57350842248943    6.94638803627594
C         8.56167004509865    1.84219785424501    8.05514530426996
C         7.25117702535739    1.87589033144149    8.48948589229224
C         2.25015136190796   -1.05136494996343    5.66112186799218
C         1.31860693153250    1.20711299564570    5.43968057693309
C         1.26522491168054    1.17100137311689    3.97980600749291
C         0.08230992646461    1.51153532832056    3.32567858290519
C         0.02750725767806    1.51817084632122    1.94551880065139
C         1.15467707238039    1.20718774591320    1.20156900848385
C         2.34161618227819    0.89781643796221    1.84523770363733
C         2.40148877303188    0.87625416054337    3.22623898976937
H        -1.21259872658429    5.31052875750333   10.97441314339206
H        -1.72040213899877    6.54702193410833   13.05265458867778
H        -0.64734333828268    5.88325548230681   15.17421872941133
H         0.94007327953469    3.99592678868852   15.20916909789822
H         1.43522762536116    2.76077709168172   13.14287977485671
H         5.96953883529511    3.93860392553966    6.14404551095718
H         8.31181465985207    3.88765402071863    5.38325536923812
H         9.98436240118869    2.54978109330394    6.61745982942168
H         9.28108239522768    1.23281304793121    8.58330705270708
H         6.95377937459473    1.26576883842570    9.32935627177197
H        -0.78409099822790    1.76715752810480    3.91551130293857
H        -0.89565229788242    1.77340388285234    1.44724477518844
H         1.11171680754634    1.21845532891933    0.12281088099887
H         3.22800127847900    0.67745649096104    1.26911708942176
H         3.33653372227029    0.66976573660380    3.72417570490440
H         0.68007496846776    0.51691812461640   12.08856767164157
H        -0.76227771638202    0.26972740769636   11.09507553664223
H        -0.74739829744783    1.56376342187090   12.32832198826461
H         4.69191032218864    2.69051166229333   11.51954744663829
H         6.22269533000415    3.03420414962237   10.50167086270809
H         1.82945050220706   -1.23740615642161    4.67575724774614
H         1.91012480669217   -1.80684745478301    6.37040391102177
H         3.34044462857617   -1.08781500333667    5.61638779787608

