25
CSD_code = CRPHGN | q = 1 | S = 0 | Stoichiometry = C10H10HgN3O(1+) | MND = 2
Hg       10.08802166108653   -1.13695384918216    1.64520948695786
C        13.85654763931071   -0.60078780026306    2.30562325563110
C        14.74653366149054   -1.85954218346749    2.08672044815747
C        13.96068311415671   -4.24728422715921    2.04998032016102
C        12.53087063043771   -2.29669029128194    1.76925407442528
C         8.52937412983949    0.52276022778137    1.53774497854859
C         8.99660685946686    1.79246366772459    1.78453119166477
C         8.06963400534529    2.83465272426774    1.76022048071695
C         6.74085212251120    2.57149857966832    1.49204142680978
C         6.30832041259383    1.28352167115743    1.24736884925984
C         7.21551275695628    0.22346158448396    1.26564179176521
N        13.78256055451048   -2.85843126256880    1.75226449772194
N        11.40097324071428   -2.84979061849413    1.58667290107635
N        12.58248578496169   -0.96691411145444    2.05916382784134
O        14.23175962445841    0.49937662879917    2.60128384011015
H        15.35183910462918   -2.10944372456722    2.96249449005108
H        15.40673143118141   -1.63443782118740    1.24191387189554
H        14.92761895104790   -4.56980792408688    1.66386280770296
H        13.15027958654293   -4.80006524776766    1.57190510867110
H        13.93022266059183   -4.45253426430497    3.12593481036814
H        10.03642886098973    2.01576679328769    1.99552491422773
H         8.41626342217923    3.83866026843825    1.95311687599747
H         6.02977677241007    3.38576099216085    1.47124931330815
H         5.27123260339852    1.06931180534878    1.03792193270295
H         6.85807040918874   -0.77885161733269    1.06945450422714

