31
CSD_code = CTMORP | q = 0 | S = 0 | Stoichiometry = C8H16Cl2N2PdS2 | MND = 4
Pd        0.00031296636691   -0.00015164991844   -0.00017407333510
N         0.88617943624750    0.16506473948657    1.83597309816596
Cl        1.31763125667825    1.61107592251552   -1.01677438094286
S         2.65948109218865    0.96863143985953    4.22071760073879
C         0.56350254721232    1.47383526723390    2.42142799617290
C         0.91080501180998    1.39845580339726    3.91415923213665
C         2.25210605580089   -0.11310517161484    1.88236935742136
C         2.74268941671220   -0.60834815011094    3.15319931902201
H         1.15870793974033    2.24485090353981    1.91966727514813
H        -0.50871660595274    1.69221055757912    2.29496994913218
H         0.76984981413410    2.36663828249424    4.39137949762340
H         0.28336289625111    0.65609414719389    4.41237646499043
H         2.88601681784609    0.53526069100326    1.28836739721711
H         3.78709229447175   -0.89901300983311    3.17111105975308
H         2.11084286953224   -1.35219963363295    3.63452219532637
H         0.36345535422098   -0.55825392905551    2.36095615197691
N        -0.88618909887242   -0.16512124250293   -1.83601936696192
Cl       -1.31792419948425   -1.61067150031438    1.01726467293737
C        -0.56350724918518   -1.47387603589080   -2.42146332385173
C        -2.25214254016899    0.11304525743147   -1.88233035699468
H        -0.36347644681617    0.55820436487704   -2.36100339569859
C        -0.91079330725209   -1.39845094138838   -3.91418961764446
H        -1.15869800985944   -2.24490384084972   -1.91970819041176
H         0.50871263965204   -1.69223265370879   -2.29500961552677
C        -2.74269555945001    0.60836767050961   -3.15320298302795
H        -2.88604198567814   -0.53537634339043   -1.28837697257846
S        -2.65946052406340   -0.96857910319116   -4.22080116374918
H        -0.76983256498931   -2.36662975609801   -4.39141677000425
H        -0.28332758659594   -0.65608396089957   -4.41237452045208
H        -3.78710264994524    0.89901871898770   -3.17112580257776
H        -2.11084008055168    1.35224315629092   -3.63449073400516

