53
CSD_code = CTMSRH | q = 0 | S = 0 | Stoichiometry = C23H23ClN3O2Rh | MND = 6
Cl       -0.22241797900966   -0.51059746088076    4.87551686244410
C         0.71987492641374   -0.96917803287862    1.52613354272865
C         1.06976683314929    3.06293675222833    3.54327740106740
C        -0.17295143644694    2.64137191942387    4.33515377878521
C        -2.01323379697424    3.05802301328164    2.96378122391312
C        -3.02174334994723    2.90900033893838    1.97164291323909
C        -3.81900594364578    4.03281045182964    1.67647678078282
C        -4.77002157340433    4.00935955765442    0.69313627926740
C        -4.94631199944063    2.84132376494821   -0.05747064134630
C        -4.19057238988302    1.73101796270503    0.19392181602532
C        -3.21132725645563    1.70460149345862    1.22395039704042
C        -4.21621964136297   -0.38247475934244    3.66124668992953
C         0.24402740465819   -2.29708869639230    1.68651041351128
C        -5.40649352291306   -0.45836504389377    4.36161163438427
C        -5.47350536132235    0.07198552924461    5.63989444365205
C        -4.33151722986545    0.65417352914229    6.16604502951777
C        -3.18018933399526    0.69278229040375    5.40030739241818
C        -1.01322522886655   -2.61251558471950    2.28732993915178
C        -1.38193049561215   -3.98409174364418    2.34332909158560
C        -0.56766806953850   -4.96895304515224    1.86093062726108
C         0.66670600794769   -4.65423304456702    1.27985464674683
C         1.05013026687900   -3.34431499024941    1.19490122964492
C         0.92203797884975    1.35907960119690    1.61867005410338
C         1.73468887036243    1.89921555423585    2.81281327121224
H         1.64915531084002   -0.89807892281917    0.95401446617806
H         1.78503544826336    3.48914045415866    4.24939643766357
H         0.79910019871116    3.84214667258356    2.82428354646794
H         0.10205888019826    1.83510318422754    5.01894865990740
H        -0.53534092940735    3.50420440857998    4.91029557668095
H        -1.89202165013050    4.08307225737474    3.32790645670280
H        -3.66370052816458    4.93446211976351    2.25411018495628
H        -5.37275352867279    4.88083962981044    0.48963547464786
H        -5.68889634388305    2.81878786813662   -0.84220813099861
H        -4.31741453369772    0.82535730858899   -0.38001122471735
H        -4.12682413344336   -0.79729372265468    2.66605146269780
H        -6.26372465557459   -0.93100318608875    3.90899776866954
H        -6.38717964292639    0.02646711955531    6.21287649728918
H        -4.32549278284637    1.07017651814337    7.16107980162536
H        -2.26837651378995    1.11738680602715    5.79882429994367
H        -2.33435828157135   -4.21634819240766    2.79624979072292
H        -0.87650616229380   -6.00246962037526    1.92941536086491
H         1.30396772708579   -5.43999473045350    0.90421233481217
H         2.00083868220108   -3.08953291529697    0.74586968828811
H         1.60540286116595    1.15398335922648    0.78448917526469
H         0.20286558490710    2.11042427273442    1.27829818477265
H         1.90206528454481    1.08374922439941    3.51925661345690
H         2.70685981767692    2.23533345867007    2.44743729733082
N         0.20749010088284    0.13939426809381    1.94783976536300
N        -1.21988836089198    2.16409654014824    3.45147389948380
N        -3.12249602184795    0.19048899124684    4.16558467771874
O        -1.83711811889073   -1.75191599615741    2.75459938617626
O        -2.55964267104599    0.61816280315831    1.40517411993428
Rh       -1.44210271697453    0.19589066465416    3.06493361102974

