32
CSD_code = CTMTCR | q = 0 | S = 0 | Stoichiometry = C12H12CrO6S | MND = 6
Cr        0.71804570499857    1.96479412481386    7.78049903800569
S         2.78843812932331    2.93093500675727    6.54002107619583
C        -0.75478826179841    1.37724658846835    8.71388805896097
O        -1.67618716291178    1.01557120092439    9.30270056273428
C         1.77002892623584    1.24145002624364    9.13909734124892
O         2.27178911923622    0.79173626506203   10.06910960275773
C         0.64777561779794    0.31915228097242    6.90588020689386
O         0.43962154385181   -0.73461022697017    6.49226977461184
C        -0.45587331412024    2.72525152937812    6.54742719720280
O        -1.29662493318153    3.17559027455561    5.90780671734374
C         0.61954566692831    3.54316252881744    8.77265547038853
O         0.40812393783003    4.42891557057547    9.46866843409997
C         2.88261396852625    2.74511091410953    4.68304142101200
C         3.09814102962134    4.08464484199683    3.99950451194547
C         4.15158787572208    1.91426678217032    4.80634658837705
C         4.12368173294924    0.43129524865326    6.85784262252603
O         4.84632180448869    1.45182667536659    3.95367764968436
H         1.55561304354481    1.03828099465426    4.60276261923698
H         1.96897825858447    1.73660727149333    3.03468638668748
H         0.82039244804212    2.56742377689901    4.09422356530701
H         3.36446024950232    3.92423081104732    2.95673425479206
H         2.18677014099523    4.67648591371954    4.04594508733061
H         3.89896116809369    4.63993169873582    4.48205807097867
H         5.62427300196330    3.52906890964658    6.47982985230584
H         5.52658766259697    2.53169291282574    7.93539774614539
H         6.42212490991924    1.95231587980833    6.52062120342405
H         3.18972278461609   -0.01345978851190    6.51840907315488
H         4.94708467677266   -0.18616132299362    6.50198417679576
H         4.13629462623004    0.43809359496403    7.94585135915302
C         4.28896485083254    1.83943773631315    6.32007621139617
C         5.54638654254196    2.50888572758559    6.84816326869784
C         1.73074425026703    1.97182625191838    4.07092085060448

