49
CSD_code = CTPCPM | q = 1 | S = 0 | Stoichiometry = C21H20CoN4O3(1+) | MND = 6
Co        1.82547661971338    4.33375621848055    6.16887520795988
C         1.06019515602251    6.39921423408955    5.59102165016720
C         4.26037722027273    3.90854282610144    4.76023047950968
C         5.39354713723771    3.31212170226128    4.23499977080805
C         5.76041828767715    2.05087364109676    4.67537290975709
C         4.95977268091994    1.43856364260226    5.62675173180633
C         3.84213767389077    2.10566555976320    6.09546369424795
C         3.86967255575875    5.83223127513584    7.52749840967338
C         4.36092979334019    6.81016112054840    8.37280868055785
C         3.54436489230404    7.30974914707225    9.37440683905917
C         2.26995773208269    6.78178980587013    9.49593151231517
C         1.85678960279374    5.80248027385761    8.61036164001462
C         1.69109945701530    2.62285848478158    8.55909204943954
C         1.06434657084155    1.94471942635513    9.58857131288322
C        -0.29674665743226    1.69541572730296    9.50068794962457
C        -0.96754732167642    2.14842105825746    8.37628527384661
C        -0.26137503259715    2.81542466921948    7.39031042909319
C         0.43729036533881    4.19431724839152    3.63679094448813
C        -0.18632640297166    3.62036609946079    2.54000678781873
C        -0.25906306266613    2.24272656532088    2.44422409066195
C         0.30736968716620    1.49305476096491    3.46503053533736
C         0.90843952301609    2.14400958815143    4.52450348525124
H         3.95088841341281    4.89023539011295    4.42738642601764
H         5.97367972973727    3.83446536021876    3.49160454921637
H         6.63943354745509    1.55884841382720    4.28995727896157
H         5.19422205794415    0.45659558586103    6.00511437053552
H         3.21252668616604    1.62923544956522    6.83269711447012
H         4.49038387322288    5.45142669961361    6.73046237492050
H         5.36249997374950    7.18222860066690    8.23023590690687
H         3.88776920625930    8.09191670318171   10.03304547030666
H         1.58864149098680    7.13292724141738   10.25370114428092
H         0.85312832087841    5.40905714542325    8.67472803409838
H         2.74812788640021    2.84182610877026    8.62768621611679
H         1.63615708849910    1.62519222430691   10.44490009077631
H        -0.81709305844835    1.17144967549041   10.28696044635110
H        -2.02813152899883    1.99489016711077    8.26023258933812
H        -0.77623588643597    3.19732438187543    6.52147137482666
H         0.49533892628128    5.26980309081210    3.70447705859198
H        -0.60782784632624    4.25874108876206    1.78093950991094
H        -0.74054013539102    1.76500852122831    1.60553577843258
H         0.28349233960491    0.41543952112373    3.44595863321592
H         1.34612960564646    1.56357900565469    5.32391822015417
N         3.48846790370402    3.32606045282251    5.68436879715563
N         2.63663565230915    5.33163723484680    7.63288262888647
N         1.05293961628747    3.04802401877789    7.46222838228266
N         0.97882484893715    3.47706955433553    4.62284156599757
O         0.42230874719978    5.48506927380589    6.29652917990299
O         2.18564086821701    5.82903962906629    5.18502327285208
O         0.69766519465177    7.51524638623879    5.35368820117557

