64
CSD_code = CTPIRC | q = 0 | S = 0 | Stoichiometry = C24H33Cl3IrP3 | MND = 6
Ir        2.65532013156717    0.45303805023492    2.79931150592616
Cl        2.45509531555498    0.41949220987617    5.15650889872710
Cl        2.99562600058657    0.50640186958801    0.46170328313326
Cl        0.87314232944863   -1.06766303266804    2.45357083215054
P         0.91944078332158    2.02008043394555    2.69939281334119
P         3.81916406433251   -1.57312983985393    2.97170136115264
P         4.43358979708825    1.95622194707949    2.94014180444181
C         1.16498281606308    3.72110073747538    3.30077426752579
C         1.59858294293903    3.86292351975223    4.61635520653299
C         1.72761158304101    5.11841672781645    5.17773368744435
C         1.43058288335544    6.24512930484983    4.42788062372411
C         1.01891905124934    6.10929575245567    3.11369206397857
C         0.88646254038460    4.85297838398250    2.54792575128024
C         0.15831567349745    2.18559933506989    1.05410277649849
C        -0.51912627940064    1.56964533653050    3.73422178727912
C         5.52392131902427   -1.58916280096261    3.61544995535433
C         5.70952667461019   -1.29957192718259    4.96544542392537
C         6.98002033445857   -1.29297124690904    5.51115451749043
C         8.07955866252508   -1.56805478635537    4.71351112726439
C         7.90302002358799   -1.84338253730312    3.36805496352024
C         6.63231795045253   -1.85011115208194    2.81786690547021
C         3.91063531556083   -2.52482213308543    1.42152256182640
C         3.05136792442295   -2.79007611668466    4.09896058755994
C         4.15333682062991    3.65007026915026    2.33003035129097
C         4.35788149734102    4.78118375479757    3.11035491035945
C         4.19048390102100    6.04059216400415    2.56176419569086
C         3.81432257034817    6.18345448311454    1.23773349804073
C         3.59302481859118    5.05845483664773    0.46046750033861
C         3.76046686315636    3.79823353353262    1.00217493488033
C         5.20140512379382    2.18328448242377    4.57871649701719
C         5.89060766908766    1.51125734545339    1.92425362753247
H         1.82969763124052    2.97743698745853    5.19305150807439
H         2.05514717073759    5.22062539100150    6.20228293041516
H         1.52304480320224    7.22794381167431    4.86636985889592
H         0.79471923712710    6.98656795289021    2.52432793670668
H         0.56835327887294    4.76227495878866    1.52068883419072
H         4.84977198714481   -1.07610245434169    5.58164323930510
H         7.11405066399416   -1.07301681005501    6.56030385380743
H         9.07195935251017   -1.56621020098544    5.13930618714604
H         8.75816861810506   -2.05446642815967    2.74238680202272
H         6.50701835865709   -2.06099289703896    1.76627350638877
H         4.64128372725520    4.69029552209634    4.14725365439187
H         4.35589236341718    6.91486948572347    3.17430248838062
H         3.68921321570954    7.16922755093235    0.81455371496215
H         3.29286169772837    5.16411119307331   -0.57191220307125
H         3.58667113049198    2.91604296753485    0.40227075948195
H        -0.74264886941459    2.79600770229361    1.11076325647919
H         0.87263913470898    2.61117990013824    0.35212072914386
H        -0.09729806626139    1.18035872679604    0.71822484540783
H        -1.25573184841679    2.37259777602182    3.69148239783869
H        -0.94686967769423    0.64048847200168    3.36235775384937
H        -0.19235993821143    1.42134008272794    4.76196464251857
H         4.41411133330950   -3.47619648040321    1.59290137150353
H         2.88610887395606   -2.69806064624031    1.09237941284240
H         4.42024495920187   -1.94848117296834    0.65192100838143
H         3.72572069539892   -3.63781792346777    4.22322196131211
H         2.85035167909621   -2.32864544952653    5.06358412728257
H         2.10735758764669   -3.11567326956291    3.66601833130381
H         4.46148486040106    2.55099047268020    5.28584889738121
H         5.54563046361577    1.20822322935112    4.92088871478987
H         6.04682767315338    2.86682447387200    4.50970560964736
H         6.34581165538546    0.60562616126777    2.32191159845205
H         5.56578793506074    1.33240066933623    0.90141741779195
H         6.61047121141859    2.32922134035103    1.94700663174551

