36
CSD_code = CTPPAU | q = 0 | S = 0 | Stoichiometry = C18H15AuClP | MND = 2
Au        0.84151170300464    2.97717807295868   -1.71545833064624
Cl        0.11871656102832    2.33079395172876   -3.75897581949712
C         2.61132642415757    2.37770550396487    1.15442774969720
C        -1.85551375112592    4.19041859369773    3.30522155695960
C        -1.80786110588668    3.08037776343081    2.47543264089013
C        -0.76576386190615    2.93542123966688    1.58046814698890
C         2.53387800069112    5.12459328667444    0.33442151418224
C         1.98907056462893    6.20701071572208   -0.35461425207863
C         2.67090126937615    7.40693537998324   -0.40608624068477
C         3.90451728871581    7.52705575693132    0.21646994210879
C         4.45424223756710    6.44758566409683    0.88780355803686
C         3.77470183168754    5.24300045724188    0.94903829432398
C         2.69350657892674    2.29998366254899    2.54197754051430
C         3.52010745168760    1.35762460132429    3.12560297211513
C         4.26284178160760    0.49530561648746    2.33398333820447
C         4.17983089562874    0.57002886714659    0.95275382370438
C         3.35256196852736    1.50721481479227    0.36141368432667
C         0.24010264141638    3.89738535475791    1.52046162082966
C         0.18915179991177    5.01208603447472    2.34947377641174
C        -0.86158396360426    5.15291358230266    3.23941099892010
H        -2.67249035437048    4.30736143958174    4.00132096916080
H        -2.58630826071339    2.33379660473006    2.52302070268023
H        -0.71968863523017    2.08168321870638    0.91555900403951
H         1.03091218182782    6.09128854573741   -0.84640149345988
H         2.24703460059199    8.24643708877573   -0.93639356003300
H         4.44075329523832    8.46310848154726    0.17186218856263
H         5.41840483654141    6.54172017506154    1.36516806917570
H         4.20545433421191    4.39895253143614    1.46948170963544
H         2.11012811463726    2.97328412111116    3.15532206972843
H         3.58440114635804    1.29426995988170    4.20187712620631
H         4.90437318489947   -0.24004947422675    2.79601174930317
H         4.75454528182964   -0.10549931739410    0.33721258032821
H         3.26695570490085    1.57026165357602   -0.71625629202833
H         0.96505223139156    5.76349347841954    2.29683193703709
H        -0.90356225841555    6.01865008221789    3.88383922217734
P         1.56198828024460    3.59522249094708    0.31621750217501

