31
CSD_code = CTXNPD | q = 0 | S = 0 | Stoichiometry = C8H16Cl2O2PdS2 | MND = 4
Pd        3.50862904405754    9.81107376055716    2.19519971642845
Cl        4.49777786801661    8.39056923881504    3.69787021908264
S         2.66719264280167    8.15474676602919    0.82905451166428
C         3.09320378756799    6.49545737011953    1.45606804402620
C         1.97094624201738    5.53067027322192    1.09021233488478
C         1.05875018421333    8.25981065388637    1.70078510233956
C         0.20093805983953    7.06153662670910    1.30879188133307
O         0.75379471957002    5.83755549891717    1.72730552926093
H         4.02765596467469    6.20751253221275    0.97857870806111
H         3.23478178624851    6.55841754956672    2.53613435328372
H         1.83381735304586    5.52014318746489   -0.00264735843240
H         2.22903083613163    4.52371165916481    1.42691720628182
H         0.59087768551591    9.19630530750644    1.38884253908918
H         1.25408737344244    8.26287719181719    2.78389496425461
H        -0.77370290064920    7.12511723025301    1.79930041455817
H         0.05561649989527    7.06089247290796    0.21708919846710
Cl        2.51987532250840   11.23026336578064    0.69379577295673
S         4.35077674144859   11.46510073446712    3.56443230489410
C         3.92428626527247   13.12411164720886    2.93674903132480
C         5.95876979578073   11.36017011550026    2.69192759816252
C         5.04645293806437   14.08912523679594    3.30239562248747
H         2.98988007613713   13.41221491575098    3.41423490946266
H         3.78261527044793   13.06111043566211    1.85668090941569
C         6.81660228523723   12.55847611985331    3.08370498687581
H         6.42672427406008   10.42368041056165    3.00379664939660
H         5.76310498845994   11.35708031072815    1.60886648186579
O         6.26357196451716   13.78237898166963    2.66519327211033
H         5.18371499395327   14.09978301550765    4.39523853572700
H         4.78823431719954   15.09604754756384    2.96565463133090
H         7.79115846351327   12.49490041261034    2.59303994208125
H         6.96203515701155   12.55915943119067    4.17539198732550

