122
CSD_code = CUBBOQ | q = 0 | S = 0 | Stoichiometry = C50H66CrO5 | MND = 5
Cr        3.43123948018162    2.83974780014888    1.17345978469656
O         5.06593424097808    2.57037284003297    2.12280505971640
O         4.41203733103362    2.76765913399100   -0.58678882561769
O         1.75067119682135    2.85382060325916    0.26229223129634
O         2.44554010470594    2.89536403463666    2.93962043467174
O         3.58691227574894    5.01359775868388    1.19415642311102
C         5.57699102843039    1.41432601637575    2.45479131575684
C         5.31123725506893    0.81847835315603    3.70855390059538
C         5.92029899915275   -0.36395232364957    4.07270578627783
C         6.81729361681888   -1.02989579485782    3.24345845122521
C         7.07715326278048   -0.44884424944652    2.01018015181035
C         6.48556409308437    0.73587429431018    1.61434963869857
C         6.74119255075486    1.29722236585801    0.23555417646783
C         5.69987701992252    0.73103248915892   -0.69452563588898
C         5.81784035402731   -0.57157991476977   -1.15225772451146
C         4.85054676896121   -1.16775282842271   -1.95474161473284
C         3.74485543946055   -0.40751104356894   -2.30636510929786
C         3.58617858206617    0.90379814680834   -1.87525367460765
C         4.55946053129540    1.45951807946180   -1.04406163422719
C         2.33448960924959    1.66175917945536   -2.23551272114872
C         1.22158524933332    1.17841562612568   -1.33652211321620
C         0.42840408709028    0.11342763870220   -1.70845928335867
C        -0.56007496175738   -0.40819834115213   -0.87977263367870
C        -0.71800100525842    0.19494440285300    0.35995815800450
C         0.05564444823527    1.26744991495160    0.76197437538508
C         1.05878335994728    1.79823411852768   -0.07707124161026
C        -0.11003977981640    1.85357628072859    2.14440631388175
C         0.81784245095184    1.12179534132364    3.07869313832647
C         0.47402982234209   -0.13495287384339    3.55106117507558
C         1.32488413443263   -0.88330060927374    4.35782213702075
C         2.54645437030264   -0.32399208281123    4.70217122019334
C         2.93056185501530    0.93533153044347    4.25743622038707
C         2.06760896683046    1.64349543561116    3.42127139927039
C         4.29336298905898    1.47016942962964    4.61406546420859
C         7.45142328493850   -2.33195888193058    3.70832491628101
C         8.35863023803151   -2.95734168257919    2.64520477727833
C         6.34477455767929   -3.34402923714481    4.03954432580239
C         8.29633967778803   -2.06276317695377    4.96132166532746
C         5.04019323007110   -2.60890886829372   -2.40190789701934
C         3.87888255098396   -3.11820554870431   -3.25966326146921
C         5.14051815886135   -3.50160427861467   -1.15697650580905
C         6.33054298248124   -2.71620871793449   -3.22658869658955
C        -1.39521693840616   -1.58889104196453   -1.35084279374198
C        -2.39301854467781   -2.06433859726433   -0.29122378195531
C        -0.46481796201064   -2.76418963838152   -1.68510608417606
C        -2.18465067716816   -1.18262614190190   -2.60321010482413
C         0.88886368783339   -2.26591590329072    4.81763482784120
C         1.94613107200391   -2.96211416353938    5.67864459798870
C         0.63188002230134   -3.13801022067080    3.58061342345125
C        -0.39853744371793   -2.14091430321826    5.64438409605575
C         4.98714799875429    3.72496116323461   -1.45994010567825
C         2.05769010759807    3.96216900261902    3.78961504695485
C         4.64849369880631    5.77919201393453    1.72389921974851
C         3.99654621513866    7.05403976884482    2.28500711510598
C         2.65702056580160    7.14259673787559    1.52702282373289
C         2.68922521650583    5.92264585097321    0.59278864056742
H         5.68754178022809   -0.77246069508665    5.04626650881502
H         7.76723492034511   -0.91497949118476    1.32391485055852
H         7.73894074714090    1.01476694526226   -0.10801615490259
H         6.67082561191611    2.38474094865049    0.29229208025560
H         6.69746228357203   -1.12609827540861   -0.86569887222654
H         2.97259066787543   -0.82034666530886   -2.93271308611986
H         2.46210612256719    2.73340684053760   -2.07353065470229
H         2.07928024739595    1.48018785402961   -3.28206633493524
H         0.58804050457171   -0.31771613365410   -2.68698443031710
H        -1.46976640169468   -0.16216313878954    1.04672464573052
H         0.13711324224577    2.91517345680108    2.09508971865204
H        -1.14262488857152    1.73676777371601    2.48124294381831
H        -0.49001422750968   -0.52970699889587    3.27122775894388
H         3.23629550204651   -0.85909932441909    5.33233802537395
H         4.34459008227855    2.54931734429006    4.46109225818662
H         4.51845776423579    1.24102197894916    5.65822125241066
H         7.79702326510686   -3.18393924758044    1.74166495198954
H         8.77760874043142   -3.88816588874717    3.02388924368545
H         9.18397373724505   -2.29446464725382    2.39617191051428
H         5.71006099097635   -3.50207244809200    3.16986329282581
H         5.72121303499629   -2.99254623054359    4.85679129671109
H         6.77916367235687   -4.29883287871048    4.33102288281300
H         7.68684380207714   -1.65740612043415    5.76440411716277
H         9.08135639674744   -1.34391334240116    4.73583704180579
H         8.75914153617619   -2.98334886747333    5.31295339374622
H         4.06200574048595   -4.15355946848075   -3.54085261102155
H         3.78108711478274   -2.53518318671164   -4.17262531654472
H         2.94309707529258   -3.08007620021128   -2.70723602269557
H         5.98625666959515   -3.22145761627710   -0.53568700180740
H         5.25993001112282   -4.54312070626919   -1.44900890246790
H         4.23660198614761   -3.40961315885742   -0.55869916016795
H         7.19852263702203   -2.42512399297666   -2.64188367354197
H         6.27398801879510   -2.06801040566038   -4.09877613237764
H         6.47561050426623   -3.73992539852078   -3.56562121634391
H        -3.09825097652145   -1.27645994438048   -0.03700110224324
H        -1.87660733283035   -2.38648688652338    0.61028470174468
H        -2.95915856462449   -2.91099485306491   -0.67602341845095
H         0.20816091487694   -2.51366826069446   -2.50041159528053
H        -1.04611647744370   -3.63593681403676   -1.98083267085609
H         0.13518725273367   -3.02526168246754   -0.81551909540325
H        -1.51739553382628   -0.87914012278756   -3.40522965007691
H        -2.84295760126711   -0.34683011368579   -2.37543640858354
H        -2.79021475317420   -2.01512912722790   -2.95740577078671
H         2.14469574291393   -2.39820487803642    6.58722800530565
H         2.87356994866421   -3.09042298551132    5.12573321336579
H         1.58727078313248   -3.94815236439163    5.96753615512183
H        -0.15367057500953   -2.72018970047842    2.95763001533759
H         0.33344098868129   -4.14020102428783    3.88195296748917
H         1.53657279026380   -3.21024535632506    2.98082700823797
H        -0.22837594296267   -1.50554268471876    6.51119911801659
H        -0.71813943566317   -3.12123348166980    5.99190639371199
H        -1.20431393294195   -1.70839295332980    5.05815488067738
H         4.83696153151401    4.70255210504457   -1.01003677259173
H         4.50721979681541    3.69479416311562   -2.44482685696214
H         6.05954448495970    3.54081101576105   -1.59080679294056
H         2.38780383270881    4.87826971199973    3.30869731250375
H         2.52629980881843    3.86905240732643    4.77607551644331
H         0.97012021255111    3.98209639635302    3.92379230145236
H         5.36437948797592    6.03786366807077    0.92942509313664
H         5.14907536689928    5.15760575707143    2.46466244747139
H         4.62283553580468    7.92598530257857    2.10936960414333
H         3.83239796571859    6.96661966825191    3.35782631923316
H         1.81545356386993    7.08046096818128    2.21523412263928
H         2.56576868569973    8.06897288582143    0.96426050143716
H         1.73825273727222    5.40348996719118    0.48438720495647
H         3.05510937528032    6.21685171502533   -0.40236234114044

