37
CSD_code = CUBCAE | q = 0 | S = 0 | Stoichiometry = C18H10Cl2N4NiO2 | MND = 4
Ni        9.11138133982804    7.52925835743746    1.71439245285903
Cl       10.54421009817798    0.99357099719195    1.09627036662642
O        12.23351162109895    5.72589303966459    0.13940174896968
N        10.63078402605598    8.68344041843270    1.28799875227252
N        10.23803299277770    6.16209305821151    1.22492548308283
C        10.85172005187089    9.98176790573929    1.48785043766638
H        10.09230147721408   10.53908795907560    2.01964836646935
C        12.00662028057031   10.62682273056250    1.07350232991086
H        12.12544544561830   11.68173220680744    1.26390376863557
C        12.99082281153014    9.90080860640493    0.42095776850874
H        13.89416729092203   10.37894483003386    0.07435698502604
C        12.79203757197651    8.54273843768718    0.24971003133066
H        13.52106256479541    7.89763657390063   -0.21567530882819
C        11.61277259142588    7.96825719510984    0.70116896389105
C        11.40690536176020    6.47430185968668    0.63474467316082
C         9.75815793576621    4.86873526952901    1.43067335950413
C        10.40615837263751    3.67551207744390    1.15426611926243
H        11.39301736085001    3.67109732954452    0.72225305927793
C         9.75057102053703    2.48457374670041    1.43856471428656
Cl        7.67850441047683    0.99355838804162    2.33228213870013
O         5.98913590688022    5.72588841453295    3.28908383918467
N         7.59193276035457    8.68343785274772    2.14059134254811
N         7.98465438744249    6.16208173045727    2.20364831775339
C         7.37102672704293    9.98177762428737    1.94077399460126
H         8.13037236242969   10.53905243586662    1.40882886443255
C         6.21608323971294   10.62682195653436    2.35502924506197
H         6.09726682644174   11.68173214302471    2.16462629429127
C         5.23180520943171    9.90078823425623    3.00743673162854
H         4.32857033738394   10.37896891206713    3.35424632023627
C         5.43063040868847    8.54273357338480    3.17878071963838
H         4.70165183206892    7.89765116080258    3.64427018161067
C         6.60992226628699    7.96825525038392    2.72738769144219
C         6.81576585524747    6.47429425501669    2.79379201408517
C         8.46454127639309    4.86872923765901    1.99790641076637
C         7.81654121148381    3.67550214447995    2.27429729076282
H         6.82968299422802    3.67108532178105    2.70631176530509
C         8.47213177259549    2.48456876551278    1.98999276603559

