31
CSD_code = CUBGAJ | q = 0 | S = 0 | Stoichiometry = C12H11Cl2N3O2Pt | MND = 4
Pt        2.95081754246554    2.88790607120864    0.99308562405566
Cl        2.27439513678245    4.21531408192219    2.68688908304993
Cl        4.71700906272874    4.21898536476682    0.59538311463282
O         4.54901745249125    1.33438571512450    2.49666467609745
O         4.02174150094071    0.10454226180337    4.28989071037027
H         4.37594066183209    0.86125168929874    4.78731986165169
N         1.37427708769995    1.70280685315756    1.27606770570230
N         2.81025683967511   -0.19218336257367    0.99016774131512
N         3.60904568619880    1.57387388328099   -0.40279758240554
C         0.15596303440600    2.19493401085813    1.53033064900793
H         0.07519160273199    3.27315319917316    1.53722311917696
C        -0.92775115465461    1.38682875401006    1.80669640854139
H        -1.88708035892785    1.83017424171487    2.01618479584616
C        -0.75614404931202    0.00922159454803    1.81292816806170
H        -1.57983895080950   -0.65406759029388    2.02445872701080
C         0.49963594202558   -0.49960227659080    1.53123935645715
H         0.67888557226830   -1.56280808524179    1.50598522830987
C         1.54763041942264    0.37518350420633    1.26478349372827
C         3.46694793011241   -0.78406998409996    2.14501206930926
H         4.26242749860404   -1.45856905735247    1.82168760169646
H         2.74870506854021   -1.33859103807421    2.74902905942260
C         4.08471419876467    0.33961788628819    2.98262665887359
C         3.63275241170741    0.28498007415213   -0.04243262612850
C         4.42692297504351   -0.63889684179980   -0.72148684022957
H         4.42774423051034   -1.67242339456733   -0.41359095607087
C         5.19080535884855   -0.21966744985220   -1.79375826535744
H         5.81747799175549   -0.92114460105339   -2.32247557601710
C         5.11858728551561    1.10993163003168   -2.18536294043315
H         5.68268289510823    1.47704212537798   -3.02627489320282
C         4.31653890765626    1.97070723652049   -1.46323651076654
H         4.25020021989219    3.02118350406272   -1.70973766169507

