35
CSD_code = CUBLUH | q = 0 | S = 0 | Stoichiometry = C14H14Cl2N2O2Pt | MND = 4
Pt        1.08232738185489   12.18374068934767    3.94511651255816
Cl        2.38550904426637   13.42507043242178    5.39054924411759
C         0.97882783626685   15.77281969331552    0.86976986546237
C         1.42635570196418   16.74597319606669   -1.44805157136331
H         0.92449836527291   15.90787193905133   -1.92682906135378
H         2.49410752725394   16.53876242042763   -1.41217310313601
H         1.25800813498491   17.64935521994490   -2.02837480085532
C         0.40173093083959   15.88447949402182    2.13642087127545
H        -0.08250994682346   16.80793789135198    2.41375137486087
N         1.05128584112992   13.66624989120449    2.69110596190008
C         1.59967226973542   14.56505799918875    0.55208005155398
H         2.07141152741679   14.40562434278633   -0.40342461322623
C         0.45811951125610   14.81991615369289    3.01086476219853
H         0.02616656051171   14.88512017926617    4.00299794581671
C         0.89475373796621   16.94430571650463   -0.05496063676983
C         1.61163346688984   13.54688121391905    1.48481661914916
H         2.07595855894154   12.59278083352165    1.26140727053117
O         0.41579808313165   17.98853232320646    0.31774925988758
Cl       -0.22013827307074   10.94239276116689    2.49880782530445
C         1.18736214195120    8.59485258546040    7.02065468146319
C         0.73987292659104    7.62175623194399    9.33848837918551
H         1.24172918776616    8.45989136032792    9.81721248717920
H        -0.32788236927470    7.82895371193959    9.30263096336582
H         0.90824555287681    6.71840892146409    9.91885597155745
C         1.76443933921089    8.48324566717243    5.75398335191831
H         2.24864549133448    7.55978997155442    5.47659292461374
N         1.11512496173244   10.70158535654256    5.19954356752875
C         0.56650884764310    9.80259716007173    7.33840551246249
H         0.09475470304185    9.96198809380481    8.29391828613352
C         1.70812085396621    9.54789205915287    4.87963952781333
H         2.13995530869738    9.48270576064644    3.88746262512731
C         1.27142702162179    7.42336401728069    7.94538165371966
C         0.55461653750091   10.82085349416206    6.40576325808150
H         0.09018598439468   11.77491176796570    6.62915801194770
O         1.75037725115628    6.37913145010084    7.57268501998893

