37
CSD_code = CUBMAN | q = 1 | S = 0 | Stoichiometry = C16H14CoN2O4(1+) | MND = 6
Co        6.14616212067451    5.64470141981390    1.37021539217728
O         4.67788695267592    5.64953851682092    1.22804934518154
O         6.16995230532786    4.13245743664275    2.49632881383368
N         6.11404857432037    7.35879183931269    0.29424316380322
O         6.37968898621936    4.57960718109472   -0.16595273453484
C         5.98611344023412    6.28843756856413   -1.85578079769446
C         6.04435328420352    7.41022243396371   -0.98807445217415
H         6.02272505810038    8.39044612440367   -1.46945542095728
C         6.03021250936355    6.57876430002063    4.16290838311528
H         5.89359975157043    7.34729624540443    4.92695192438201
O         7.59093628316468    5.88407261764713    1.55153499284424
C         6.22735072781180    8.51896294277561    1.15121581414652
H         5.80381953855991    9.40603117126665    0.66910206490905
H         7.29135282013486    8.69190939167288    1.35160636358760
N         5.88861261939237    6.90858919791291    2.92901235188395
C         6.61433885464327    5.11366692958678    6.01435180840066
H         6.54570964011631    5.97691298610729    6.65910088514424
C         7.05711866621408    2.78787654462790    5.68809538301596
H         7.33314613989819    1.82568374464780    6.09241842131148
C         6.11720446253998    4.94354158805241   -1.38752546774939
C         6.00510726426286    3.90279402522354   -2.33974709307061
H         6.10478209773534    2.89370656919600   -1.97365429320998
C         6.44764000337889    4.14655063911659    3.76769661922784
C         5.78224614164871    6.51956313584515   -3.23531574873809
H         5.68594264857082    7.53886323916186   -3.57781417701193
C         5.80618177655159    4.16998308278362   -3.67032988544616
H         5.73093058318713    3.35025759069828   -4.36881622154329
C         5.50369268484682    8.22626410146380    2.47390160088192
H         5.74564933816359    8.98756271118154    3.22266131366178
H         4.42111249472378    8.22321267539130    2.30065870321779
C         6.81656758987068    2.90761139987190    4.34286427108524
H         6.87833956473713    2.06036452702749    3.67911205542888
C         6.35856941906782    5.28063373187636    4.63458386099253
C         6.95870547553604    3.89502882072144    6.53655893422366
H         7.15780421791897    3.78754808475485    7.59047726600832
C         5.69285574043994    5.48604267446164   -4.12948468101416
H         5.53214022419445    5.68090281088552   -5.17739875932049

