73
CSD_code = CUBPAS | q = 0 | S = 0 | Stoichiometry = C29H37FeN2O3P | MND = 5
Fe        3.56255727186778    6.07268330994006   13.50623910235049
H         4.70922330748183    5.39042787927486   12.84718833847507
C         3.94162053251484    4.99352872901455   14.86500160015062
O         4.15949625202135    4.25791516800274   15.72172747793770
C         2.11619415380203    6.62282122604885   14.31711191684019
O         1.14592235648220    6.91748780576890   14.86331806853813
C         2.61325986620604    5.34005565463555   12.19439325840742
O         2.00241231454988    4.82378577414198   11.36836444562640
P         4.51178942252286    7.89472758461020   13.25615100205524
N         4.09138365551833    9.47292518249915   13.64372759640428
C         5.03386776871035   10.41899727271757   13.29212381074128
H         4.85986950748389   11.45788827518773   13.49877646440777
C         6.09836383543591    9.84792496683511   12.70799249220894
H         6.98874230118620   10.31794482358103   12.33532257613631
N         5.94927695551396    8.47556935688358   12.61676073073937
C         6.95253104165174    7.63060787472418   12.07274986266286
C         7.80284301163548    6.94275454371916   12.94169647292258
C         8.78574503152896    6.13344388926630   12.38660963751151
H         9.46478050050475    5.59897834691446   13.03211276583886
C         8.90146593747665    5.99774116103298   11.01749720629867
H         9.66478105984970    5.35595450748479   10.60319289112697
C         8.04130602705965    6.67506165978923   10.17340401731600
H         8.13838504102850    6.54783986828591    9.10734942053406
C         7.05734559187192    7.50952497430347   10.68344539391153
C         6.08209725472795    8.22305794660364    9.77511434904528
H         5.70437726695085    9.11301113707279   10.29050385881235
C         6.71639479156052    8.68992759250053    8.46490011015333
H         6.02743526633599    9.34736252533095    7.93894558788383
H         6.93832448488949    7.85060432869655    7.81140713255041
H         7.63718701624609    9.23724413031571    8.65584947680937
C         4.89524180875822    7.29441673523676    9.50007025692952
H         4.15785686296774    7.79635865349318    8.87719332385370
H         4.41825608070878    6.99361368143089   10.43478805176161
H         5.22999388017509    6.39504070712250    8.98826726163204
C         7.69452001110856    7.09608644443416   14.44000903710011
H         6.74994408855342    7.60132213301599   14.68276564511736
C         7.66741504548746    5.74188968421332   15.14706129896744
H         7.46136334545291    5.88173557418036   16.20593269465156
H         8.61714119608413    5.22223422219013   15.05226667245521
H         6.88285964597431    5.11866023834495   14.72368716423810
C         8.84496178638131    7.96530559589882   14.95515298078677
H         8.76415721142031    8.09592096193020   16.03192663986567
H         8.82564515486236    8.94699265214565   14.48510250399798
H         9.80269715547693    7.49943082156921   14.73474513876025
C         2.84754353128035    9.78172731727489   14.25318531745751
C         1.70880755868471    9.88675643296233   13.44944863979736
C         0.49866402201738   10.17032361021715   14.06807618961521
H        -0.39604526417947   10.26627195621556   13.47317129034738
C         0.42142858844756   10.31506564161348   15.43945068503639
H        -0.53136434477858   10.51691799019932   15.90561079373925
C         1.55568765057261   10.19347397957322   16.21905844836920
H         1.47623359322500   10.29389449676992   17.28996887105043
C         2.79047467581797    9.93373010478714   15.64128877846708
C         4.02629169316466    9.77141343811438   16.49600174363953
H         4.91399305777752    9.81884933886212   15.85560280028685
C         4.15421063219437   10.88243235214965   17.53940321569308
H         5.12231668476390   10.81599614123640   18.03106336184648
H         3.38477385993745   10.79937604476875   18.30194068894824
H         4.07178059386043   11.86061996572903   17.06987929540761
C         4.00354067982687    8.39446217561618   17.16547633699875
H         4.88658656639931    8.26209462872923   17.78696477473832
H         3.98848297576355    7.60577369019401   16.41115612126296
H         3.11910539313363    8.28653337537379   17.78896961778248
C         1.78564013072562    9.72669464820033   11.94933663536296
H         2.77167700977434    9.32524829689070   11.67984484437215
C         0.74334203230983    8.73626956732605   11.43090720130744
H         0.89833361264730    8.55794097893766   10.36907408867771
H        -0.26709433172182    9.11180114228761   11.56853949135026
H         0.83582719931230    7.78611090785376   11.95393387757521
C         1.62862110612898   11.09198488252613   11.27433524655849
H         1.70451545616599   10.98799870091794   10.19431443263716
H         2.40352444996884   11.77817799678977   11.61113257339182
H         0.66026908875100   11.52605459750309   11.51231890371871

