135
CSD_code = CUBPEW | q = 0 | S = 0 | Stoichiometry = C54H72FeN4O2P2 | MND = 4
Fe        2.14215204052698   13.94763957709712   13.78406227939551
C         1.16797425394518   12.68777698658224   14.56922243458811
O         0.50446998699812   11.91141268315520   15.11995034039979
C         2.40677946906833   15.19148239710153   15.02286313502210
O         2.58437384514881   15.94872030272620   15.88382502003189
P         3.87349552103812   12.94071613580598   13.36880190392582
N         4.31247565122153   11.31933113231409   13.62106360198328
C         5.62356472655848   11.02329136618061   13.30375549379502
H         5.99650823838421   10.02258486043894   13.42208577317989
C         6.28076170086124   12.10644374718525   12.86740084720825
H         7.30153744940084   12.17761493364597   12.54006240730994
N         5.47814359075060   13.23634505910662   12.88198374946509
C         6.09332783587235   14.51303747186166   12.77045685195046
C         6.31247161072569   15.07583375298615   11.51173981648420
C         7.07427136304361   16.23395243144585   11.42472949052162
H         7.28261978305984   16.66596348232275   10.45741225472497
C         7.57914499433841   16.83640211366426   12.55918543324665
H         8.18226303267657   17.72852763067879   12.47532950322910
C         7.29980643091543   16.30566805018967   13.80343400272085
H         7.68178558951297   16.79645151632688   14.68426115084014
C         6.55318497482843   15.14323477887913   13.93482107294002
C         6.28394929189387   14.55896641065134   15.30058433579456
H         5.40515716748500   13.90403312621612   15.23054906458372
C         7.48330090421917   13.72201994347665   15.75530704525827
H         7.29416058925607   13.29962722358973   16.73973952535987
H         8.37591953575813   14.34245449213120   15.81094216838289
H         7.67496202952743   12.90634751730044   15.06069136653919
C         5.95474801093577   15.62966845067248   16.33958829380812
H         5.58611743981824   15.15616646817310   17.24681942893004
H         5.17980446909284   16.29494143116424   15.96774340976549
H         6.83043394567444   16.21898580014920   16.60126717451403
C         5.72921828203956   14.46044654933083   10.26371951016462
H         5.08453220160622   13.62409287044948   10.55532841784927
C         6.83446334907667   13.92286599026620    9.35264871487287
H         6.40382891913721   13.45208058870756    8.47112604036887
H         7.43471809666137   13.18214097099134    9.87691184992719
H         7.49088901773647   14.72602881817989    9.02586225024802
C         4.86212621774253   15.48685690403862    9.53204526254122
H         4.43280084734580   15.04822933143936    8.63498932223211
H         5.44385666572675   16.35587227460033    9.23488838694951
H         4.05281238906641   15.81771759441659   10.17994525701631
C         3.48170768771354   10.39412703660381   14.30750924381937
C         3.67227773656470   10.19961175224487   15.67910347463210
C         2.86628612852250    9.27584705492672   16.33013083456563
H         2.98168209950623    9.12021775089273   17.39146782668301
C         1.90980902887911    8.55885544666780   15.63957051096112
H         1.29517794205013    7.83957025731463   16.16067343052282
C         1.72310012633482    8.77287752661954   14.28773316208674
H         0.96069627419354    8.21722904420283   13.76614509377708
C         2.49189278958214    9.70287356598835   13.60306575403407
C         2.28928674148346    9.96467023975950   12.13048446243358
H         2.56516409268693   11.01133872400814   11.93837785620115
C         3.20537665113522    9.05429135702031   11.30769795734353
H         3.05342665067011    9.23011942907475   10.24484476229807
H         2.98601697055234    8.00983275985169   11.52147059035962
H         4.25119025508105    9.24152464009632   11.54184069806811
C         0.83692631020665    9.79801538251996   11.69343043220427
H         0.71364978632929   10.17594042367651   10.68170733167269
H         0.17761934923213   10.36308487990017   12.34786676407987
H         0.53468179651497    8.75351629990083   11.70192437832935
C         4.67572645742979   11.01553991770413   16.45967605628862
H         5.36049861316531   11.50795535047143   15.76272935957991
C         3.92883199424773   12.10337559605667   17.23641512618050
H         4.62942244034106   12.72008567568400   17.79559269269233
H         3.22254463451943   11.65907333696746   17.93404161692937
H         3.37140987600913   12.74309083651345   16.54888776896293
C         5.52457327888526   10.15591528461875   17.39720277650797
H         6.32292374070490   10.75732357061597   17.82735072803590
H         5.97319714364163    9.32616928715791   16.85437343278791
H         4.93120614433776    9.75371422429761   18.21392264588641
P         1.06182014358673   14.98388570965501   12.38704375321670
N         0.55284427580806   16.60301161969610   12.39687180926962
C        -0.21678265710370   16.97434657839463   11.31295276184199
H        -0.55245310001054   17.98973286674225   11.20978911759145
C        -0.43623193240205   15.93949339055738   10.49139109944490
H        -1.00589888991821   15.92317004125253    9.58101807195965
N         0.16623404150458   14.77682228056304   10.95022642151986
C        -0.26759518018800   13.53511485870720   10.41132709962881
C         0.45455947067546   12.91870289216859    9.38726435520909
C        -0.08489454566672   11.79139119262371    8.78091376181317
H         0.44033536391301   11.31968356851564    7.96410763023106
C        -1.29306603284924   11.26845138400493    9.19878377407762
H        -1.70230983921952   10.39581315107537    8.71128268552067
C        -1.97147975650363   11.85761968232306   10.24710083207594
H        -2.90702338349052   11.43347651822181   10.57772395789223
C        -1.47752766738168   12.99686241613881   10.86757312033080
C        -2.26265241794638   13.63703251338397   11.98681750693113
H        -1.69143120396748   14.47877606588422   12.39103645106301
C        -3.59183372496771   14.18420892062920   11.46136770400332
H        -4.13506034993310   14.68129014303101   12.26190841071592
H        -4.21383123590101   13.38226634338557   11.07077646208475
H        -3.42001616278360   14.90497520814766   10.66419968854545
C        -2.48828483704624   12.65305371990564   13.13497312335213
H        -3.01448757921765   13.14801152816034   13.94855448921451
H        -1.53498709210455   12.29381387814010   13.51508238300570
H        -3.07903067418769   11.79768966962317   12.81686846619214
C         1.77369533866743   13.47632833242055    8.91188652591694
H         2.09522072346493   14.25489872809962    9.61272941781118
C         1.60034970176693   14.10852065399371    7.52842243344971
H         2.53786699354048   14.54102068651450    7.18538230804873
H         0.85183945806784   14.89754305743063    7.56116659541402
H         1.28057036726745   13.36307559960504    6.80359189987858
C         2.85367071904062   12.39435052223720    8.89062374724593
H         3.79731214536047   12.81093622403454    8.54805519737518
H         2.58760206434270   11.57793446404466    8.22397268155007
H         2.99724267650856   11.99192125238813    9.89104396050752
C         0.82637539879770   17.49408357115761   13.46599308235118
C         0.03663354649795   17.43727423950033   14.62099633769053
C         0.27804607805804   18.36230727404379   15.62623671441568
H        -0.32437264276665   18.35091613775786   16.52028623700767
C         1.29294034768759   19.29232028557383   15.50655554342661
H         1.47130711889317   19.99926844749185   16.30352583469063
C         2.09301307266646   19.30509731531546   14.38177400750615
H         2.90351329245896   20.01452123440826   14.31361484369132
C         1.87209180499451   18.41125349384490   13.34285514605083
C         2.79239570215723   18.39333691797790   12.14627408811322
H         2.38304347778441   17.71671298320507   11.38833595907623
C         4.15148615592650   17.84037218282964   12.58029037655709
H         4.83929296333988   17.81207887665398   11.73893385598655
H         4.03638102846181   16.82694523878930   12.96694979345249
H         4.58876822729521   18.45556737815047   13.36295421371074
C         2.93489375946124   19.77526346130170   11.50787438354241
H         3.52047074588655   19.70221772890864   10.59377066749015
H         3.43778041568469   20.46816361306304   12.17714980336604
H         1.95737156929701   20.18449475951370   11.26001963089081
C        -1.05588416757593   16.40345822006753   14.75706191375615
H        -0.76811113918798   15.52667187404328   14.15990513230180
C        -1.22998660568411   15.90930815867709   16.19169119611200
H        -1.86524133082612   15.02605581037353   16.19860994669987
H        -1.69460181350968   16.66316314164274   16.82308374374182
H        -0.26565837523097   15.63704123153288   16.61381000215003
C        -2.37413057225844   16.96082077330482   14.21283628319233
H        -3.16634456566723   16.22312065052969   14.32120628375764
H        -2.28325075152757   17.21754693021229   13.15909098043033
H        -2.65812216104351   17.85663259143176   14.76220413892951

