67
CSD_code = CUBTIC | q = 1 | S = 0 | Stoichiometry = C33H29N3PPd(1+) | MND = 4
Pd        4.24702046215523    5.36416331597122   12.71915358785641
P         3.29697959825302    3.78128642373096   13.98990963094639
N         5.13939668558198    3.43113129633310   11.80155099299528
C         4.25074339896438    7.02857709667059   13.85184864511421
N         4.88380987785103    6.73186267015313   11.42926565843600
C         4.61409596082550    2.86488215339764   14.83153221178066
C         2.03213710907854    4.17611544714700   15.22627147747265
C         2.50196927277085    2.54501777080281   12.90946464538328
C         4.50885001610970    1.53382152489698   15.21904010120482
H         3.60042091160023    0.98185485293798   15.01776515091404
C         5.79211861767671    3.57384699901713   15.06398592698785
H         5.85992239259819    4.61753817310402   14.73650901364208
C         1.19779057859185    5.24652604113420   14.90393119208150
H         1.35688070732482    5.77312752592231   13.96357624972123
C         1.88354933170627    3.51134285554605   16.43784569665122
H         2.54507312898722    2.69645309240794   16.69511899088317
C         1.20518746536408    2.12004619698925   13.17621874948645
H         0.68144517456771    2.51904403413249   14.03299474001511
C         3.17820481514560    2.02048370524045   11.78992533364452
N         5.11923630523323    7.91163622792730   11.80893437607455
C         4.97342942065507    6.39641915918122   10.08528955818383
C         4.85577603705177    8.09996307804460   13.13572483421008
C         5.57679830008023    0.92222583827020   15.85249482548194
H         5.49995537755557   -0.11035141576972   16.15745760410749
C         6.85363068859906    2.95595176007165   15.69890988199665
H         7.76682302911998    3.50105921854971   15.88450187436449
C         0.57420428170403    1.19276779075338   12.36300082684731
H        -0.43348561931171    0.88054428529395   12.58939234766075
C         4.54141537169630    2.37714422777082   11.42324363420270
H         5.03408845695698    1.64666629940230   10.77891058223252
C         2.53296075544175    1.07000227868993   10.99598607389116
H         3.05408330813580    0.65651083441082   10.14447880496298
C         1.23987400779245    0.66561760908303   11.26893774328735
H         0.75634598171561   -0.06086130853071   10.63498153863234
C         6.74304026783450    1.63117364504588   16.09482641527958
H         7.57127068883171    1.14798282318808   16.58975368213218
C         0.20208552140624    5.63328808689813   15.77997669939434
H        -0.44672726292545    6.45938414211452   15.53263858428620
C         0.88695658142523    3.90927116456873   17.31283257872788
H         0.76764994802381    3.39769337263745   18.25567503840078
C         0.04693309564473    4.96145965483970   16.98400912835779
H        -0.72593066175954    5.26582291605833   17.67274153809907
C         4.09872807275124    5.39777091373084    9.63603648495321
H         3.35246620293964    4.98633016459390   10.32816112766565
C         5.87540724110548    6.99608183677301    9.20603870842868
H         6.53333998072239    7.76867433084568    9.57330100067493
C         4.14310012647908    4.99824845936564    8.31599936379710
H         3.46140602508121    4.24162278514590    7.95749194888242
C         5.91840556552106    6.57167128062609    7.89195141356210
H         6.62033192738270    7.02184183234899    7.20760456505590
C         5.06178246205809    5.57466494698506    7.44817630224325
H         5.10311537060381    5.24968978959475    6.42030679081005
C         3.97297457772413    7.21237358311895   15.19232156783488
H         3.53009938142315    6.41419884122056   15.77852289284817
C         6.54043583597473    3.66176600081890   11.49621397152591
H         7.10529273141823    3.31161472023563   12.37150624146537
H         6.68914478836186    4.74951856261990   11.43229506242847
C         4.23851987020247    8.43516180416327   15.80406971495481
H         3.99927868864311    8.56531349701017   16.84888231154973
C         5.11704735728865    9.32500025058261   13.75749325607953
H         5.57157981205388   10.11582452364595   13.18215890773173
C         4.80043417636335    9.48533455779141   15.09004593823710
H         4.99511554167486   10.42571485133213   15.58155220104125
C         7.08874832323066    3.00123767629141   10.23419591442966
H         8.08188959161186    3.39474805234720   10.03758712345760
H         6.45526841519330    3.22864717575963    9.37839572078358
H         7.17587855018986    1.92325669966413   10.34248529692297

