80
CSD_code = CUBYON | q = 0 | S = 0 | Stoichiometry = C29H41HgN5O4 | MND = 7
Hg        6.17174749689336   10.42797656502453   11.67448695222356
C         2.46803610611143   10.51260021752903   11.12099472875209
C         2.71538254428942   10.29017884090345   12.59086531674467
O         3.69979294459563    9.28062273686903   12.74781117550584
C         3.99002184625452    9.00135538114004   14.09223045424623
C         5.00548787180608    7.86804152394792   14.13888060085004
H         5.20164810772558    7.59515288339842   15.18741630301137
H         4.59812131129490    6.99247625624099   13.61187566687477
O         6.18971380962158    8.29406820350279   13.51230389012628
C         7.21427179263662    7.33069323219301   13.51322075548511
C         8.24721169864466    7.66505535708466   12.43663704572569
H         9.11995028238079    7.00505694831092   12.59476792649522
H         7.80665926244541    7.43710108705551   11.46287446613860
N         8.64564296769153    9.06920712877340   12.41343364868634
C         9.19322858044764    9.47994254569420   13.69799646947993
H         8.40996553583715    9.45330543248795   14.45043683208544
H         9.55254026726031   10.50368534555968   13.63385347894301
H        10.02672027658076    8.83105194732297   14.01044650309114
C         9.61745175491296    9.27289951853148   11.34413461407885
H         9.28556068709078    8.71009272070425   10.46872792886676
H        10.61471032928668    8.90551231979019   11.64158821593007
C         9.73881534949729   10.72867722504906   10.90580660221701
H         9.90594868241282   11.39718299883860   11.76203868028986
H        10.59942087355241   10.82479710473449   10.22405316799390
O         8.55874192531307   11.09489069760582   10.23157289681085
C         8.58270891870045   12.41541964183181    9.74557475722727
C         7.22147983871575   12.74868785969849    9.15308933026548
O         6.31777708132493   12.93141254941512   10.21159096527742
C         5.00852165696895   13.27555148839376    9.78444773811844
C         4.18009532604914   13.61627608928343   10.99656098695439
C         4.65802318121598   14.61059600771452   11.83257724214474
C         3.98118508747913   15.00122192398412   12.99303002128279
C         2.74062147685821   14.39977502828119   13.23762095454225
C         2.27053663080021   13.40054227516423   12.41251332131056
C         2.98670205715527   12.95642807516607   11.30396873337134
C         2.53449158823325   11.78124126590842   10.53629148898698
C         2.22074240187369   11.88585917013676    9.18412747001698
H         2.21931049986204   12.86617253761337    8.72643508211937
C         1.92497173704144   10.78213332614893    8.41291410685157
H         1.71075616780590   10.93168579854966    7.36721028172203
C         1.94247511419973    9.49657097943950    8.96829979893324
C         2.18179062495873    9.40346407005502   10.34412772250257
N         1.69085045971183    8.36380783856167    8.22536067166419
C         1.51681015967481    8.48225382519093    6.79836298197845
H         1.21089568471428    7.51704415393440    6.39764503798032
H         2.43336038279083    8.79972678309549    6.28421177738468
H         0.72343561072499    9.19791310088091    6.58002887885223
C         2.24060146164198    7.11085462073788    8.70323828707866
H         2.22019698609018    6.37755553701971    7.90038846605693
H         1.64207357706679    6.72136550621081    9.53056778179671
H         3.27531345266345    7.23408514248110    9.03769467497735
N         4.51574813880929   15.96841677155760   13.81633822192929
C         5.95846016110009   16.10650513476331   13.83986749178544
H         6.25700325457198   16.63752135708737   14.74078861688403
H         6.30351831411991   16.68377035282964   12.97786110625278
H         6.44877618054967   15.12834857432515   13.83339870601231
C         3.81752962977142   16.33474104065173   15.02370193499167
H         4.30427225403787   17.20419797874480   15.46330951672730
H         3.80304383192084   15.52803903460760   15.76842662822718
H         2.79071571013061   16.61423590246300   14.78647187881547
C         6.36062522978917   11.81776378613801   13.30183013602260
N         6.43456905795794   12.58419149331133   14.15589446659059
C         5.67233657044324    9.21311671478477    9.97718345378468
N         5.39172935564112    8.55093387616475    9.08020464681307
H         1.78327647686586    9.95804305468954   13.08082900106551
H         4.57233754002163   12.44325268373642    9.21740744869524
H         5.07045369699834   14.15395498795133    9.11933951280815
H         5.59497760234680   15.07326259681383   11.57082291918912
H         8.79473665979026   13.11859825581832   10.56384167634246
H         4.40433583155803    9.89061187272178   14.59019783812026
H         2.14668425977603   14.68055575013040   14.09226040650849
H         2.16769264127488    8.44503493760687   10.83499391290423
H         9.36290191407891   12.51584801433605    8.97499850648693
H         7.29559365460452   13.67170945573518    8.55614757075202
H         7.67830901232479    7.28250374285146   14.51105800634206
H         3.07658706156862    8.69144399933277   14.62488871921853
H         3.05031840886559   11.21304233085630   13.08216946201348
H         1.32109221815605   12.93300051218021   12.63659487252337
H         6.89621847927887   11.92688954608678    8.49891712049928
H         6.80223738478018    6.33569742854977   13.28762334174107

