44
CSD_code = CUBYUV | q = 0 | S = 0 | Stoichiometry = C19H18NO5Re | MND = 6
Re       12.48491058067743    6.23465224315657    2.54656919042669
N        12.84745139332688    4.36603199538835    3.52385558206503
O        10.77025638061969    5.25886549602659    1.76273702477686
O        11.44862963071519    8.92097246735992    1.41612554072580
O        14.53559495281175    7.74337884396822    4.29842698385965
O        14.38681664767843    5.72269683808078    0.17286518503799
O        10.82069737124231    6.31412183954534    4.32057154020241
H        10.02010459601116    6.11845938887162    3.80732884670162
C        11.86622282878750    7.93081249205521    1.81203557762475
C        12.11741109213406    3.29381595000639    3.46557499117706
H        12.42404570304066    2.44816680469002    4.08906135826489
C        13.81812519634051    7.17379645776074    3.60432146100532
C        13.70073037704214    5.95869371580896    1.06308932384091
C        10.56440151418128    7.38660207047090    5.20434050065718
H         9.76905729502575    7.11584594146495    5.90533832313894
H        10.28337076982867    8.29731052929350    4.66723604105175
H        11.48361172621986    7.57175707352480    5.75860308968824
C        10.97048238621138    3.05084696276623    2.67032672178888
C        10.36123559532156    4.04941770547242    1.84660412936366
C         9.20529250057949    3.67533623651337    1.11213575744314
H         8.75681060350215    4.43845548416543    0.49123445411092
C         8.67836045508524    2.41257931082890    1.16107572530626
C         9.29060885401320    1.44332220693317    1.97882132656695
H         8.87483000468409    0.44760357815343    2.02073313001809
C        10.39937518675827    1.76153956869614    2.70761565567080
H        10.86873652869557    1.01415191669437    3.33394734116492
C        13.91867841999331    4.32517630272452    4.44576289477130
C        15.21046328659633    4.61757921052542    4.01902318476890
H        15.37897962830927    4.85532511304850    2.97662382351298
C        16.27387342724300    4.60321121450427    4.90892744381274
C        16.03176015128596    4.28901877085228    6.24094677675123
H        16.84961669022235    4.28143657948763    6.94633790058921
C        14.75131447182361    3.99080373673114    6.67080148599983
H        14.57200787669291    3.75279253727156    7.70918815736020
C        13.69404821627940    3.99885243610869    5.78026414573649
H        12.68976999830233    3.78651404504319    6.12059944010478
C         7.46929831333808    2.03976179994980    0.36140778725415
H         7.72413300190598    1.26255758679257   -0.35872352148878
H         7.07526588986414    2.89741567979517   -0.17764211064149
H         6.69091029096506    1.64420029637008    1.01322552077026
C        17.64930679264534    4.94843368804618    4.42947051812042
H        17.85477606232737    4.47119401521634    3.47382938623184
H        18.40354102183209    4.64202496180159    5.14973085063392
H        17.72658628983606    6.02596890803653    4.28605151403972

