103
CSD_code = CUBZOQ | q = 0 | S = 0 | Stoichiometry = C42H57NO2Zr | MND = 5
Zr       -1.41306492063970    3.46696031918948    2.53323966140869
N         0.58120942191849    3.37224734604336    2.79878778445735
O        -1.30027549903426    3.00662581847929    0.67475049384859
O        -1.12302650309237    3.44931096461192    4.76927720475688
C        -0.40525618271509    3.66260550653650   -0.06449849775676
C        -0.74005447462455    4.22089201419622   -1.31820091314903
C         0.23205513546141    4.93632127022875   -2.00547228119789
H        -0.03047920137009    5.37586416022629   -2.95005345513210
C         1.52526455340944    5.10553302438795   -1.53121639355938
C         1.85506221575333    4.48331518207799   -0.33253878002231
H         2.86497776831023    4.54302194084740    0.04741793271718
C         0.92611814068265    3.76405636989224    0.39613925361838
C         1.35622233794925    3.00249757149248    1.63400727044048
H         1.26684337221179    1.90750562647383    1.42396810018326
H         2.42918458378563    3.20302665755410    1.79978726756242
C         1.16990516840586    2.98480809745989    4.05436454953466
H         1.77389576656308    2.05820096959570    3.95199476708250
C         0.04650190545254    2.67243824525417    5.07098463427037
H        -0.21371795804463    1.60509473472398    5.02491545550577
H         0.38745505962426    2.89974383339167    6.08582239635573
C         2.58544427325918    5.90176667865606   -2.27897363957026
C         2.05191850327578    6.54500303231717   -3.56200030606405
H         1.71593929053837    5.78983175313647   -4.26843432308950
H         2.84569628384785    7.11849285896989   -4.03719191414389
H         1.22975504289120    7.22293053984301   -3.34577581670286
C         3.74030856187740    4.96492786291886   -2.66080768191204
H         3.37286923661855    4.15426164071162   -3.28626058293184
H         4.20263306308692    4.53022926760460   -1.77925360506273
H         4.50272820942761    5.51078209725460   -3.21328417072453
C         3.10657270562205    7.02221996701687   -1.36817647379652
H         3.86046313129707    7.61085573247624   -1.88751083732672
H         3.55183457748173    6.61970823872294   -0.46306751302837
H         2.28951326930701    7.68051754003066   -1.08131401405318
C         2.13037295412844    4.10248339086696    4.56381820933718
H         2.80721020381386    4.30793786306388    3.72698251389799
C         2.97917948459124    3.66744720722645    5.75512636916187
H         3.71487276728276    4.43461701397228    5.98705708685185
H         3.50769772689842    2.74278039310479    5.53345161637692
H         2.37267961072864    3.50888624871945    6.64439097970034
C         1.35391846221091    5.38228536780275    4.85837183834441
H         0.67423766149466    5.57683731265629    4.02614548935896
H         2.03491763563490    6.22379473435427    4.96928607289696
H         0.77766991007794    5.28902552243567    5.77597383489728
C        -2.11325224862842    3.35457896228854    5.79929743888080
H        -2.23667275910780    2.30439630958306    6.09329116449672
H        -3.04418313096993    3.71407208481726    5.34668042048639
C        -1.78893838717173    4.20358340512371    7.02566971085490
H        -2.65546093888889    4.22829107748190    7.68003948834919
H        -1.55840622960865    5.21986035478391    6.71951067595664
H        -0.95077238171730    3.79938499025300    7.58796544964323
C        -1.70332806671035    5.69632684909706    2.26930731824009
H        -0.87174087840020    6.36847235256180    2.50839956549445
H        -2.01463823107106    5.83523118655395    1.22780677866388
C        -2.80238422377034    5.78034852754905    3.21493173537714
C        -4.06046327360531    5.20244402354371    2.91861189805721
H        -4.22514204401409    4.76717387426691    1.93400687630364
C        -5.09709012633600    5.23984952115326    3.82900754777086
H        -6.05073567270135    4.79865715629045    3.57293204122266
C        -4.93515866920464    5.85382253437653    5.06453043840753
H        -5.75122160516013    5.88616800885572    5.77017933404357
C        -3.71975614774722    6.44969826130838    5.36709876133864
H        -3.59651159514130    6.96017915355026    6.31252456940140
C        -2.67360999349322    6.41344102561374    4.46669346144276
H        -1.73801021367003    6.90365586820530    4.70872795245867
C        -3.17227707557309    2.01782768567081    2.76985228622060
H        -4.08680296856466    2.16429820655553    3.35668900834179
H        -3.41457781765968    1.87072126486952    1.70590927919081
C        -2.33535661168472    0.95366731967648    3.29268796453533
C        -2.57088124225959    0.34402617747972    4.54267165939227
H        -3.46852945642837    0.60641790126735    5.09085849107842
C        -1.70677410298176   -0.59934565672171    5.06397101665352
H        -1.92108173745733   -1.04654968731897    6.02554944249991
C        -0.57860200156369   -0.99140178114388    4.35880337777095
H         0.09565743544079   -1.72735174489310    4.76964722458223
C        -0.34981894078548   -0.44916571250077    3.09839864425982
H         0.50223672847880   -0.78586931510388    2.52236197430254
C        -1.20413326035352    0.49568489553586    2.56746369005201
H        -1.04264368020074    0.86282126011551    1.55284911904676
C        -2.12811634877357    3.98126023884219   -1.90898931933438
C        -3.20953583928681    4.55438062831030   -0.97902609646668
H        -3.07340960754044    5.63680132745681   -0.89354983358614
H        -3.09965013801778    4.10276901054569    0.01397050602839
C        -4.60497998259265    4.25188783956228   -1.52195907860058
H        -5.35552663254977    4.66499295468386   -0.83648593852403
C        -2.31475182979156    4.61511821292717   -3.29413525587649
H        -2.18363516347171    5.69784686818157   -3.23008170452781
H        -1.57279782056817    4.21535733942955   -3.98860865859684
C        -3.71275614975246    4.31626991413670   -3.83877303152688
H        -3.81455310946873    4.78027123735038   -4.82738427747081
C        -2.34552452861733    2.46475480069995   -2.05041634881811
H        -1.59122826248105    2.05679199732396   -2.72814508611670
H        -2.21652136636996    1.98906497952443   -1.07682223634020
C        -3.74448508999426    2.17061802277931   -2.58688661020473
H        -3.87734454562651    1.08527848171234   -2.66803018361096
C        -4.79093524710862    2.73968462711277   -1.63014080317981
H        -5.79536795713620    2.51141335251404   -1.99555779808342
H        -4.67886882812674    2.28137205725071   -0.64411313713016
C        -4.76949949860463    4.89067850598591   -2.89866274611419
H        -4.65352654038030    5.97460602906347   -2.82281160052064
H        -5.76902336301922    4.68744538577428   -3.29081830836472
C        -3.90966311263392    2.80754810043132   -3.96459026959551
H        -3.17432223255658    2.39162555025061   -4.65736537780930
H        -4.90446851370224    2.59245427988248   -4.36277219377457

